* NGSPICE file created from fpu8_wrap.ext - technology: gf180mcuD

* Black-box entry subcircuit for gf180mcu_fd_sc_mcu7t5v0__antenna abstract view
.subckt gf180mcu_fd_sc_mcu7t5v0__antenna I VDD VNW VPW VSS
.ends

* Black-box entry subcircuit for gf180mcu_fd_sc_mcu7t5v0__fill_1 abstract view
.subckt gf180mcu_fd_sc_mcu7t5v0__fill_1 VDD VNW VPW VSS
.ends

* Black-box entry subcircuit for gf180mcu_fd_sc_mcu7t5v0__filltie abstract view
.subckt gf180mcu_fd_sc_mcu7t5v0__filltie VDD VSS
.ends

* Black-box entry subcircuit for gf180mcu_fd_sc_mcu7t5v0__fill_2 abstract view
.subckt gf180mcu_fd_sc_mcu7t5v0__fill_2 VDD VNW VPW VSS
.ends

* Black-box entry subcircuit for gf180mcu_fd_sc_mcu7t5v0__fillcap_8 abstract view
.subckt gf180mcu_fd_sc_mcu7t5v0__fillcap_8 VDD VNW VPW VSS
.ends

* Black-box entry subcircuit for gf180mcu_fd_sc_mcu7t5v0__fillcap_4 abstract view
.subckt gf180mcu_fd_sc_mcu7t5v0__fillcap_4 VDD VNW VPW VSS
.ends

* Black-box entry subcircuit for gf180mcu_fd_sc_mcu7t5v0__buf_4 abstract view
.subckt gf180mcu_fd_sc_mcu7t5v0__buf_4 I Z VDD VNW VPW VSS
.ends

* Black-box entry subcircuit for gf180mcu_fd_sc_mcu7t5v0__xor2_2 abstract view
.subckt gf180mcu_fd_sc_mcu7t5v0__xor2_2 A1 A2 Z VDD VNW VPW VSS
.ends

* Black-box entry subcircuit for gf180mcu_fd_sc_mcu7t5v0__nand2_4 abstract view
.subckt gf180mcu_fd_sc_mcu7t5v0__nand2_4 A1 A2 ZN VDD VNW VPW VSS
.ends

* Black-box entry subcircuit for gf180mcu_fd_sc_mcu7t5v0__nand4_4 abstract view
.subckt gf180mcu_fd_sc_mcu7t5v0__nand4_4 A1 A2 A3 A4 ZN VDD VNW VPW VSS
.ends

* Black-box entry subcircuit for gf180mcu_fd_sc_mcu7t5v0__and3_2 abstract view
.subckt gf180mcu_fd_sc_mcu7t5v0__and3_2 A1 A2 A3 Z VDD VNW VPW VSS
.ends

* Black-box entry subcircuit for gf180mcu_fd_sc_mcu7t5v0__clkinv_1 abstract view
.subckt gf180mcu_fd_sc_mcu7t5v0__clkinv_1 I ZN VDD VNW VPW VSS
.ends

* Black-box entry subcircuit for gf180mcu_fd_sc_mcu7t5v0__endcap abstract view
.subckt gf180mcu_fd_sc_mcu7t5v0__endcap VDD VSS
.ends

* Black-box entry subcircuit for gf180mcu_fd_sc_mcu7t5v0__oai21_1 abstract view
.subckt gf180mcu_fd_sc_mcu7t5v0__oai21_1 A1 A2 B ZN VDD VNW VPW VSS
.ends

* Black-box entry subcircuit for gf180mcu_fd_sc_mcu7t5v0__xor2_1 abstract view
.subckt gf180mcu_fd_sc_mcu7t5v0__xor2_1 A1 A2 Z VDD VNW VPW VSS
.ends

* Black-box entry subcircuit for gf180mcu_fd_sc_mcu7t5v0__aoi22_1 abstract view
.subckt gf180mcu_fd_sc_mcu7t5v0__aoi22_1 A1 A2 B1 B2 ZN VDD VNW VPW VSS
.ends

* Black-box entry subcircuit for gf180mcu_fd_sc_mcu7t5v0__fillcap_16 abstract view
.subckt gf180mcu_fd_sc_mcu7t5v0__fillcap_16 VDD VNW VPW VSS
.ends

* Black-box entry subcircuit for gf180mcu_fd_sc_mcu7t5v0__clkinv_2 abstract view
.subckt gf180mcu_fd_sc_mcu7t5v0__clkinv_2 I ZN VDD VNW VPW VSS
.ends

* Black-box entry subcircuit for gf180mcu_fd_sc_mcu7t5v0__nand2_2 abstract view
.subckt gf180mcu_fd_sc_mcu7t5v0__nand2_2 A1 A2 ZN VDD VNW VPW VSS
.ends

* Black-box entry subcircuit for gf180mcu_fd_sc_mcu7t5v0__aoi21_4 abstract view
.subckt gf180mcu_fd_sc_mcu7t5v0__aoi21_4 A1 A2 B ZN VDD VNW VPW VSS
.ends

* Black-box entry subcircuit for gf180mcu_fd_sc_mcu7t5v0__oai211_1 abstract view
.subckt gf180mcu_fd_sc_mcu7t5v0__oai211_1 A1 A2 B C ZN VDD VNW VPW VSS
.ends

* Black-box entry subcircuit for gf180mcu_fd_sc_mcu7t5v0__or2_1 abstract view
.subckt gf180mcu_fd_sc_mcu7t5v0__or2_1 A1 A2 Z VDD VNW VPW VSS
.ends

* Black-box entry subcircuit for gf180mcu_fd_sc_mcu7t5v0__nand2_1 abstract view
.subckt gf180mcu_fd_sc_mcu7t5v0__nand2_1 A1 A2 ZN VDD VNW VPW VSS
.ends

* Black-box entry subcircuit for gf180mcu_fd_sc_mcu7t5v0__aoi21_1 abstract view
.subckt gf180mcu_fd_sc_mcu7t5v0__aoi21_1 A1 A2 B ZN VDD VNW VPW VSS
.ends

* Black-box entry subcircuit for gf180mcu_fd_sc_mcu7t5v0__nor2_4 abstract view
.subckt gf180mcu_fd_sc_mcu7t5v0__nor2_4 A1 A2 ZN VDD VNW VPW VSS
.ends

* Black-box entry subcircuit for gf180mcu_fd_sc_mcu7t5v0__and2_4 abstract view
.subckt gf180mcu_fd_sc_mcu7t5v0__and2_4 A1 A2 Z VDD VNW VPW VSS
.ends

* Black-box entry subcircuit for gf180mcu_fd_sc_mcu7t5v0__buf_3 abstract view
.subckt gf180mcu_fd_sc_mcu7t5v0__buf_3 I Z VDD VNW VPW VSS
.ends

* Black-box entry subcircuit for gf180mcu_fd_sc_mcu7t5v0__buf_2 abstract view
.subckt gf180mcu_fd_sc_mcu7t5v0__buf_2 I Z VDD VNW VPW VSS
.ends

* Black-box entry subcircuit for gf180mcu_fd_sc_mcu7t5v0__or3_1 abstract view
.subckt gf180mcu_fd_sc_mcu7t5v0__or3_1 A1 A2 A3 Z VDD VNW VPW VSS
.ends

* Black-box entry subcircuit for gf180mcu_fd_sc_mcu7t5v0__nor2_1 abstract view
.subckt gf180mcu_fd_sc_mcu7t5v0__nor2_1 A1 A2 ZN VDD VNW VPW VSS
.ends

* Black-box entry subcircuit for gf180mcu_fd_sc_mcu7t5v0__or4_1 abstract view
.subckt gf180mcu_fd_sc_mcu7t5v0__or4_1 A1 A2 A3 A4 Z VDD VNW VPW VSS
.ends

* Black-box entry subcircuit for gf180mcu_fd_sc_mcu7t5v0__and2_1 abstract view
.subckt gf180mcu_fd_sc_mcu7t5v0__and2_1 A1 A2 Z VDD VNW VPW VSS
.ends

* Black-box entry subcircuit for gf180mcu_fd_sc_mcu7t5v0__aoi21_2 abstract view
.subckt gf180mcu_fd_sc_mcu7t5v0__aoi21_2 A1 A2 B ZN VDD VNW VPW VSS
.ends

* Black-box entry subcircuit for gf180mcu_fd_sc_mcu7t5v0__nor4_4 abstract view
.subckt gf180mcu_fd_sc_mcu7t5v0__nor4_4 A1 A2 A3 A4 ZN VDD VNW VPW VSS
.ends

* Black-box entry subcircuit for gf180mcu_fd_sc_mcu7t5v0__oai21_4 abstract view
.subckt gf180mcu_fd_sc_mcu7t5v0__oai21_4 A1 A2 B ZN VDD VNW VPW VSS
.ends

* Black-box entry subcircuit for gf180mcu_fd_sc_mcu7t5v0__nand3_4 abstract view
.subckt gf180mcu_fd_sc_mcu7t5v0__nand3_4 A1 A2 A3 ZN VDD VNW VPW VSS
.ends

* Black-box entry subcircuit for gf180mcu_fd_sc_mcu7t5v0__nor2_2 abstract view
.subckt gf180mcu_fd_sc_mcu7t5v0__nor2_2 A1 A2 ZN VDD VNW VPW VSS
.ends

* Black-box entry subcircuit for gf180mcu_fd_sc_mcu7t5v0__oai22_4 abstract view
.subckt gf180mcu_fd_sc_mcu7t5v0__oai22_4 A1 A2 B1 B2 ZN VDD VNW VPW VSS
.ends

* Black-box entry subcircuit for gf180mcu_fd_sc_mcu7t5v0__clkbuf_3 abstract view
.subckt gf180mcu_fd_sc_mcu7t5v0__clkbuf_3 I Z VDD VNW VPW VSS
.ends

* Black-box entry subcircuit for gf180mcu_fd_sc_mcu7t5v0__clkbuf_1 abstract view
.subckt gf180mcu_fd_sc_mcu7t5v0__clkbuf_1 I Z VDD VNW VPW VSS
.ends

* Black-box entry subcircuit for gf180mcu_fd_sc_mcu7t5v0__oai22_1 abstract view
.subckt gf180mcu_fd_sc_mcu7t5v0__oai22_1 A1 A2 B1 B2 ZN VDD VNW VPW VSS
.ends

* Black-box entry subcircuit for gf180mcu_fd_sc_mcu7t5v0__nand3_1 abstract view
.subckt gf180mcu_fd_sc_mcu7t5v0__nand3_1 A1 A2 A3 ZN VDD VNW VPW VSS
.ends

* Black-box entry subcircuit for gf180mcu_fd_sc_mcu7t5v0__nor4_1 abstract view
.subckt gf180mcu_fd_sc_mcu7t5v0__nor4_1 A1 A2 A3 A4 ZN VDD VNW VPW VSS
.ends

* Black-box entry subcircuit for gf180mcu_fd_sc_mcu7t5v0__aoi211_4 abstract view
.subckt gf180mcu_fd_sc_mcu7t5v0__aoi211_4 A1 A2 B C ZN VDD VNW VPW VSS
.ends

* Black-box entry subcircuit for gf180mcu_fd_sc_mcu7t5v0__oai31_4 abstract view
.subckt gf180mcu_fd_sc_mcu7t5v0__oai31_4 A1 A2 A3 B ZN VDD VNW VPW VSS
.ends

* Black-box entry subcircuit for gf180mcu_fd_sc_mcu7t5v0__or2_2 abstract view
.subckt gf180mcu_fd_sc_mcu7t5v0__or2_2 A1 A2 Z VDD VNW VPW VSS
.ends

* Black-box entry subcircuit for gf180mcu_fd_sc_mcu7t5v0__oai21_2 abstract view
.subckt gf180mcu_fd_sc_mcu7t5v0__oai21_2 A1 A2 B ZN VDD VNW VPW VSS
.ends

* Black-box entry subcircuit for gf180mcu_fd_sc_mcu7t5v0__mux2_2 abstract view
.subckt gf180mcu_fd_sc_mcu7t5v0__mux2_2 I0 I1 S Z VDD VNW VPW VSS
.ends

* Black-box entry subcircuit for gf180mcu_fd_sc_mcu7t5v0__nor4_2 abstract view
.subckt gf180mcu_fd_sc_mcu7t5v0__nor4_2 A1 A2 A3 A4 ZN VDD VNW VPW VSS
.ends

* Black-box entry subcircuit for gf180mcu_fd_sc_mcu7t5v0__aoi221_4 abstract view
.subckt gf180mcu_fd_sc_mcu7t5v0__aoi221_4 A1 A2 B1 B2 C ZN VDD VNW VPW VSS
.ends

* Black-box entry subcircuit for gf180mcu_fd_sc_mcu7t5v0__or2_4 abstract view
.subckt gf180mcu_fd_sc_mcu7t5v0__or2_4 A1 A2 Z VDD VNW VPW VSS
.ends

* Black-box entry subcircuit for gf180mcu_fd_sc_mcu7t5v0__xor3_1 abstract view
.subckt gf180mcu_fd_sc_mcu7t5v0__xor3_1 A1 A2 A3 Z VDD VNW VPW VSS
.ends

* Black-box entry subcircuit for gf180mcu_fd_sc_mcu7t5v0__oai211_4 abstract view
.subckt gf180mcu_fd_sc_mcu7t5v0__oai211_4 A1 A2 B C ZN VDD VNW VPW VSS
.ends

* Black-box entry subcircuit for gf180mcu_fd_sc_mcu7t5v0__nor3_2 abstract view
.subckt gf180mcu_fd_sc_mcu7t5v0__nor3_2 A1 A2 A3 ZN VDD VNW VPW VSS
.ends

* Black-box entry subcircuit for gf180mcu_fd_sc_mcu7t5v0__and2_2 abstract view
.subckt gf180mcu_fd_sc_mcu7t5v0__and2_2 A1 A2 Z VDD VNW VPW VSS
.ends

* Black-box entry subcircuit for gf180mcu_fd_sc_mcu7t5v0__oai31_1 abstract view
.subckt gf180mcu_fd_sc_mcu7t5v0__oai31_1 A1 A2 A3 B ZN VDD VNW VPW VSS
.ends

* Black-box entry subcircuit for gf180mcu_fd_sc_mcu7t5v0__aoi22_2 abstract view
.subckt gf180mcu_fd_sc_mcu7t5v0__aoi22_2 A1 A2 B1 B2 ZN VDD VNW VPW VSS
.ends

* Black-box entry subcircuit for gf180mcu_fd_sc_mcu7t5v0__nor3_1 abstract view
.subckt gf180mcu_fd_sc_mcu7t5v0__nor3_1 A1 A2 A3 ZN VDD VNW VPW VSS
.ends

* Black-box entry subcircuit for gf180mcu_fd_sc_mcu7t5v0__xor2_4 abstract view
.subckt gf180mcu_fd_sc_mcu7t5v0__xor2_4 A1 A2 Z VDD VNW VPW VSS
.ends

* Black-box entry subcircuit for gf180mcu_fd_sc_mcu7t5v0__nor3_4 abstract view
.subckt gf180mcu_fd_sc_mcu7t5v0__nor3_4 A1 A2 A3 ZN VDD VNW VPW VSS
.ends

* Black-box entry subcircuit for gf180mcu_fd_sc_mcu7t5v0__xnor2_2 abstract view
.subckt gf180mcu_fd_sc_mcu7t5v0__xnor2_2 A1 A2 ZN VDD VNW VPW VSS
.ends

* Black-box entry subcircuit for gf180mcu_fd_sc_mcu7t5v0__xor3_2 abstract view
.subckt gf180mcu_fd_sc_mcu7t5v0__xor3_2 A1 A2 A3 Z VDD VNW VPW VSS
.ends

* Black-box entry subcircuit for gf180mcu_fd_sc_mcu7t5v0__inv_1 abstract view
.subckt gf180mcu_fd_sc_mcu7t5v0__inv_1 I ZN VDD VNW VPW VSS
.ends

* Black-box entry subcircuit for gf180mcu_fd_sc_mcu7t5v0__xnor2_1 abstract view
.subckt gf180mcu_fd_sc_mcu7t5v0__xnor2_1 A1 A2 ZN VDD VNW VPW VSS
.ends

* Black-box entry subcircuit for gf180mcu_fd_sc_mcu7t5v0__oai32_2 abstract view
.subckt gf180mcu_fd_sc_mcu7t5v0__oai32_2 A1 A2 A3 B1 B2 ZN VDD VNW VPW VSS
.ends

* Black-box entry subcircuit for gf180mcu_fd_sc_mcu7t5v0__aoi222_4 abstract view
.subckt gf180mcu_fd_sc_mcu7t5v0__aoi222_4 A1 A2 B1 B2 C1 C2 ZN VDD VNW VPW VSS
.ends

* Black-box entry subcircuit for gf180mcu_fd_sc_mcu7t5v0__and4_1 abstract view
.subckt gf180mcu_fd_sc_mcu7t5v0__and4_1 A1 A2 A3 A4 Z VDD VNW VPW VSS
.ends

* Black-box entry subcircuit for gf180mcu_fd_sc_mcu7t5v0__clkinv_3 abstract view
.subckt gf180mcu_fd_sc_mcu7t5v0__clkinv_3 I ZN VDD VNW VPW VSS
.ends

* Black-box entry subcircuit for gf180mcu_fd_sc_mcu7t5v0__oai31_2 abstract view
.subckt gf180mcu_fd_sc_mcu7t5v0__oai31_2 A1 A2 A3 B ZN VDD VNW VPW VSS
.ends

* Black-box entry subcircuit for gf180mcu_fd_sc_mcu7t5v0__inv_2 abstract view
.subckt gf180mcu_fd_sc_mcu7t5v0__inv_2 I ZN VDD VNW VPW VSS
.ends

* Black-box entry subcircuit for gf180mcu_fd_sc_mcu7t5v0__or4_4 abstract view
.subckt gf180mcu_fd_sc_mcu7t5v0__or4_4 A1 A2 A3 A4 Z VDD VNW VPW VSS
.ends

* Black-box entry subcircuit for gf180mcu_fd_sc_mcu7t5v0__clkbuf_8 abstract view
.subckt gf180mcu_fd_sc_mcu7t5v0__clkbuf_8 I Z VDD VNW VPW VSS
.ends

* Black-box entry subcircuit for gf180mcu_fd_sc_mcu7t5v0__fillcap_32 abstract view
.subckt gf180mcu_fd_sc_mcu7t5v0__fillcap_32 VDD VNW VPW VSS
.ends

* Black-box entry subcircuit for gf180mcu_fd_sc_mcu7t5v0__nand3_2 abstract view
.subckt gf180mcu_fd_sc_mcu7t5v0__nand3_2 A1 A2 A3 ZN VDD VNW VPW VSS
.ends

* Black-box entry subcircuit for gf180mcu_fd_sc_mcu7t5v0__fillcap_64 abstract view
.subckt gf180mcu_fd_sc_mcu7t5v0__fillcap_64 VDD VNW VPW VSS
.ends

* Black-box entry subcircuit for gf180mcu_fd_sc_mcu7t5v0__oai221_4 abstract view
.subckt gf180mcu_fd_sc_mcu7t5v0__oai221_4 A1 A2 B1 B2 C ZN VDD VNW VPW VSS
.ends

* Black-box entry subcircuit for gf180mcu_fd_sc_mcu7t5v0__buf_1 abstract view
.subckt gf180mcu_fd_sc_mcu7t5v0__buf_1 I Z VDD VNW VPW VSS
.ends

* Black-box entry subcircuit for gf180mcu_fd_sc_mcu7t5v0__clkbuf_2 abstract view
.subckt gf180mcu_fd_sc_mcu7t5v0__clkbuf_2 I Z VDD VNW VPW VSS
.ends

* Black-box entry subcircuit for gf180mcu_fd_sc_mcu7t5v0__oai211_2 abstract view
.subckt gf180mcu_fd_sc_mcu7t5v0__oai211_2 A1 A2 B C ZN VDD VNW VPW VSS
.ends

* Black-box entry subcircuit for gf180mcu_fd_sc_mcu7t5v0__or4_2 abstract view
.subckt gf180mcu_fd_sc_mcu7t5v0__or4_2 A1 A2 A3 A4 Z VDD VNW VPW VSS
.ends

* Black-box entry subcircuit for gf180mcu_fd_sc_mcu7t5v0__nand4_2 abstract view
.subckt gf180mcu_fd_sc_mcu7t5v0__nand4_2 A1 A2 A3 A4 ZN VDD VNW VPW VSS
.ends

* Black-box entry subcircuit for gf180mcu_fd_sc_mcu7t5v0__clkinv_4 abstract view
.subckt gf180mcu_fd_sc_mcu7t5v0__clkinv_4 I ZN VDD VNW VPW VSS
.ends

* Black-box entry subcircuit for gf180mcu_fd_sc_mcu7t5v0__and3_1 abstract view
.subckt gf180mcu_fd_sc_mcu7t5v0__and3_1 A1 A2 A3 Z VDD VNW VPW VSS
.ends

* Black-box entry subcircuit for gf180mcu_fd_sc_mcu7t5v0__xnor2_4 abstract view
.subckt gf180mcu_fd_sc_mcu7t5v0__xnor2_4 A1 A2 ZN VDD VNW VPW VSS
.ends

* Black-box entry subcircuit for gf180mcu_fd_sc_mcu7t5v0__or3_2 abstract view
.subckt gf180mcu_fd_sc_mcu7t5v0__or3_2 A1 A2 A3 Z VDD VNW VPW VSS
.ends

* Black-box entry subcircuit for gf180mcu_fd_sc_mcu7t5v0__buf_8 abstract view
.subckt gf180mcu_fd_sc_mcu7t5v0__buf_8 I Z VDD VNW VPW VSS
.ends

* Black-box entry subcircuit for gf180mcu_fd_sc_mcu7t5v0__aoi22_4 abstract view
.subckt gf180mcu_fd_sc_mcu7t5v0__aoi22_4 A1 A2 B1 B2 ZN VDD VNW VPW VSS
.ends

* Black-box entry subcircuit for gf180mcu_fd_sc_mcu7t5v0__and3_4 abstract view
.subckt gf180mcu_fd_sc_mcu7t5v0__and3_4 A1 A2 A3 Z VDD VNW VPW VSS
.ends

* Black-box entry subcircuit for gf180mcu_fd_sc_mcu7t5v0__xnor3_4 abstract view
.subckt gf180mcu_fd_sc_mcu7t5v0__xnor3_4 A1 A2 A3 ZN VDD VNW VPW VSS
.ends

* Black-box entry subcircuit for gf180mcu_fd_sc_mcu7t5v0__aoi211_1 abstract view
.subckt gf180mcu_fd_sc_mcu7t5v0__aoi211_1 A1 A2 B C ZN VDD VNW VPW VSS
.ends

* Black-box entry subcircuit for gf180mcu_fd_sc_mcu7t5v0__oai22_2 abstract view
.subckt gf180mcu_fd_sc_mcu7t5v0__oai22_2 A1 A2 B1 B2 ZN VDD VNW VPW VSS
.ends

* Black-box entry subcircuit for gf180mcu_fd_sc_mcu7t5v0__aoi221_1 abstract view
.subckt gf180mcu_fd_sc_mcu7t5v0__aoi221_1 A1 A2 B1 B2 C ZN VDD VNW VPW VSS
.ends

* Black-box entry subcircuit for gf180mcu_fd_sc_mcu7t5v0__and4_4 abstract view
.subckt gf180mcu_fd_sc_mcu7t5v0__and4_4 A1 A2 A3 A4 Z VDD VNW VPW VSS
.ends

* Black-box entry subcircuit for gf180mcu_fd_sc_mcu7t5v0__dlya_2 abstract view
.subckt gf180mcu_fd_sc_mcu7t5v0__dlya_2 I Z VDD VNW VPW VSS
.ends

* Black-box entry subcircuit for gf180mcu_fd_sc_mcu7t5v0__aoi221_2 abstract view
.subckt gf180mcu_fd_sc_mcu7t5v0__aoi221_2 A1 A2 B1 B2 C ZN VDD VNW VPW VSS
.ends

* Black-box entry subcircuit for gf180mcu_fd_sc_mcu7t5v0__oai32_4 abstract view
.subckt gf180mcu_fd_sc_mcu7t5v0__oai32_4 A1 A2 A3 B1 B2 ZN VDD VNW VPW VSS
.ends

.subckt fpu8_wrap a[0] a[1] a[2] a[3] a[4] a[5] a[6] a[7] b[0] b[1] b[2] b[3] b[4]
+ b[5] b[6] b[7] op[0] op[1] op[2] out[0] out[1] out[2] out[3] out[4] out[5] out[6]
+ out[7] vdd vss
XANTENNA__1343__B _0215_ vdd vdd vss vss gf180mcu_fd_sc_mcu7t5v0__antenna
XFILLER_0_11_4 vdd vdd vss vss gf180mcu_fd_sc_mcu7t5v0__fill_1
XTAP_TAPCELL_ROW_17_191 vdd vss gf180mcu_fd_sc_mcu7t5v0__filltie
XFILLER_0_9_422 vdd vdd vss vss gf180mcu_fd_sc_mcu7t5v0__fill_2
XFILLER_0_9_400 vdd vdd vss vss gf180mcu_fd_sc_mcu7t5v0__fill_1
XFILLER_0_9_444 vdd vdd vss vss gf180mcu_fd_sc_mcu7t5v0__fill_1
XFILLER_0_4_160 vdd vdd vss vss gf180mcu_fd_sc_mcu7t5v0__fillcap_8
XFILLER_0_4_193 vdd vdd vss vss gf180mcu_fd_sc_mcu7t5v0__fillcap_4
XFILLER_0_13_494 vdd vdd vss vss gf180mcu_fd_sc_mcu7t5v0__fill_1
Xrebuffer7 _0025_ net35 vdd vdd vss vss gf180mcu_fd_sc_mcu7t5v0__buf_4
XANTENNA__0971__A3 net6 vdd vdd vss vss gf180mcu_fd_sc_mcu7t5v0__antenna
XFILLER_0_11_409 vdd vdd vss vss gf180mcu_fd_sc_mcu7t5v0__fill_2
X_1270_ _0276_ _0347_ _0537_ vdd vdd vss vss gf180mcu_fd_sc_mcu7t5v0__xor2_2
XFILLER_0_3_39 vdd vdd vss vss gf180mcu_fd_sc_mcu7t5v0__fill_2
XFILLER_0_3_28 vdd vdd vss vss gf180mcu_fd_sc_mcu7t5v0__fill_1
XFILLER_0_13_51 vdd vdd vss vss gf180mcu_fd_sc_mcu7t5v0__fill_2
X_0985_ _0607_ _0672_ _0225_ vdd vdd vss vss gf180mcu_fd_sc_mcu7t5v0__nand2_4
XFILLER_0_10_420 vdd vdd vss vss gf180mcu_fd_sc_mcu7t5v0__fill_2
XFILLER_0_14_247 vdd vdd vss vss gf180mcu_fd_sc_mcu7t5v0__fillcap_8
XFILLER_0_10_442 vdd vdd vss vss gf180mcu_fd_sc_mcu7t5v0__fill_1
XFILLER_0_9_230 vdd vdd vss vss gf180mcu_fd_sc_mcu7t5v0__fill_2
XANTENNA__1363__B1 _0634_ vdd vdd vss vss gf180mcu_fd_sc_mcu7t5v0__antenna
XTAP_TAPCELL_ROW_28_264 vdd vss gf180mcu_fd_sc_mcu7t5v0__filltie
X_0770_ _0201_ _0685_ _0354_ net49 _0006_ vdd vdd vss vss gf180mcu_fd_sc_mcu7t5v0__nand4_4
X_1322_ _0545_ _0593_ _0573_ _0594_ vdd vdd vss vss gf180mcu_fd_sc_mcu7t5v0__and3_2
X_1253_ _0517_ _0518_ vdd vdd vss vss gf180mcu_fd_sc_mcu7t5v0__clkinv_1
XPHY_EDGE_ROW_20_Left_50 vdd vss gf180mcu_fd_sc_mcu7t5v0__endcap
X_1184_ _0412_ _0441_ _0438_ _0443_ vdd vdd vss vss gf180mcu_fd_sc_mcu7t5v0__oai21_1
XFILLER_0_6_222 vdd vdd vss vss gf180mcu_fd_sc_mcu7t5v0__fill_2
XFILLER_0_6_255 vdd vdd vss vss gf180mcu_fd_sc_mcu7t5v0__fillcap_8
X_0968_ _0203_ _0205_ _0206_ vdd vdd vss vss gf180mcu_fd_sc_mcu7t5v0__xor2_1
X_0899_ _0127_ _0128_ _0133_ _0134_ _0135_ vdd vdd vss vss gf180mcu_fd_sc_mcu7t5v0__aoi22_1
XFILLER_0_4_60 vdd vdd vss vss gf180mcu_fd_sc_mcu7t5v0__fillcap_16
XANTENNA__1360__A3 _0613_ vdd vdd vss vss gf180mcu_fd_sc_mcu7t5v0__antenna
XTAP_TAPCELL_ROW_25_245 vdd vss gf180mcu_fd_sc_mcu7t5v0__filltie
XFILLER_0_29_28 vdd vdd vss vss gf180mcu_fd_sc_mcu7t5v0__fillcap_4
XANTENNA__1103__A3 _0337_ vdd vdd vss vss gf180mcu_fd_sc_mcu7t5v0__antenna
X_0822_ net15 _0058_ vdd vdd vss vss gf180mcu_fd_sc_mcu7t5v0__clkinv_2
X_0753_ _0475_ _0519_ _0681_ vdd vdd vss vss gf180mcu_fd_sc_mcu7t5v0__nand2_2
XFILLER_0_3_269 vdd vdd vss vss gf180mcu_fd_sc_mcu7t5v0__fill_1
XFILLER_0_3_247 vdd vdd vss vss gf180mcu_fd_sc_mcu7t5v0__fillcap_16
XFILLER_0_10_41 vdd vdd vss vss gf180mcu_fd_sc_mcu7t5v0__fill_2
XFILLER_0_10_85 vdd vdd vss vss gf180mcu_fd_sc_mcu7t5v0__fill_2
X_1305_ _0545_ _0573_ _0575_ _0576_ vdd vdd vss vss gf180mcu_fd_sc_mcu7t5v0__aoi21_4
X_1236_ _0447_ _0468_ _0499_ _0673_ _0500_ vdd vdd vss vss gf180mcu_fd_sc_mcu7t5v0__oai211_1
X_1098_ _0200_ _0347_ _0348_ vdd vdd vss vss gf180mcu_fd_sc_mcu7t5v0__or2_1
X_1167_ net6 net14 _0424_ vdd vdd vss vss gf180mcu_fd_sc_mcu7t5v0__nand2_1
XTAP_TAPCELL_ROW_22_226 vdd vss gf180mcu_fd_sc_mcu7t5v0__filltie
XFILLER_0_2_291 vdd vdd vss vss gf180mcu_fd_sc_mcu7t5v0__fill_2
XANTENNA__1097__A2 _0086_ vdd vdd vss vss gf180mcu_fd_sc_mcu7t5v0__antenna
XANTENNA__0780__A1 _0005_ vdd vdd vss vss gf180mcu_fd_sc_mcu7t5v0__antenna
XFILLER_0_29_456 vdd vdd vss vss gf180mcu_fd_sc_mcu7t5v0__fillcap_4
XFILLER_0_29_412 vdd vdd vss vss gf180mcu_fd_sc_mcu7t5v0__fill_1
X_1021_ _0246_ _0244_ _0247_ _0264_ vdd vdd vss vss gf180mcu_fd_sc_mcu7t5v0__aoi21_1
XANTENNA__0835__A2 _0672_ vdd vdd vss vss gf180mcu_fd_sc_mcu7t5v0__antenna
XFILLER_0_8_317 vdd vdd vss vss gf180mcu_fd_sc_mcu7t5v0__fillcap_8
XANTENNA__1088__A2 _0086_ vdd vdd vss vss gf180mcu_fd_sc_mcu7t5v0__antenna
XFILLER_0_29_478 vdd vdd vss vss gf180mcu_fd_sc_mcu7t5v0__fillcap_8
X_0805_ _0040_ _0041_ vdd vdd vss vss gf180mcu_fd_sc_mcu7t5v0__clkinv_2
XANTENNA__1260__A2 _0525_ vdd vdd vss vss gf180mcu_fd_sc_mcu7t5v0__antenna
X_0736_ net1 _0607_ _0664_ vdd vdd vss vss gf180mcu_fd_sc_mcu7t5v0__nand2_4
XFILLER_0_12_389 vdd vdd vss vss gf180mcu_fd_sc_mcu7t5v0__fill_1
XANTENNA__0771__A1 _0005_ vdd vdd vss vss gf180mcu_fd_sc_mcu7t5v0__antenna
X_1219_ _0454_ _0456_ _0481_ vdd vdd vss vss gf180mcu_fd_sc_mcu7t5v0__xor2_1
XFILLER_0_1_72 vdd vdd vss vss gf180mcu_fd_sc_mcu7t5v0__fill_1
XANTENNA__0817__A2 _0486_ vdd vdd vss vss gf180mcu_fd_sc_mcu7t5v0__antenna
XFILLER_0_13_109 vdd vdd vss vss gf180mcu_fd_sc_mcu7t5v0__fill_2
Xrebuffer17 _0541_ net45 vdd vdd vss vss gf180mcu_fd_sc_mcu7t5v0__buf_4
XFILLER_0_16_62 vdd vdd vss vss gf180mcu_fd_sc_mcu7t5v0__fill_1
X_1004_ _0160_ _0163_ _0246_ vdd vdd vss vss gf180mcu_fd_sc_mcu7t5v0__nor2_4
XFILLER_0_17_426 vdd vdd vss vss gf180mcu_fd_sc_mcu7t5v0__fill_2
XFILLER_0_8_169 vdd vdd vss vss gf180mcu_fd_sc_mcu7t5v0__fillcap_4
XANTENNA__0808__A2 net16 vdd vdd vss vss gf180mcu_fd_sc_mcu7t5v0__antenna
XFILLER_0_25_492 vdd vdd vss vss gf180mcu_fd_sc_mcu7t5v0__fill_1
X_0719_ _0464_ _0475_ _0486_ vdd vdd vss vss gf180mcu_fd_sc_mcu7t5v0__and2_4
Xoutput20 net20 out[0] vdd vdd vss vss gf180mcu_fd_sc_mcu7t5v0__buf_3
XANTENNA__0983__B2 net8 vdd vdd vss vss gf180mcu_fd_sc_mcu7t5v0__antenna
XFILLER_0_26_256 vdd vdd vss vss gf180mcu_fd_sc_mcu7t5v0__fillcap_4
XFILLER_0_14_429 vdd vdd vss vss gf180mcu_fd_sc_mcu7t5v0__fillcap_4
XFILLER_0_27_50 vdd vdd vss vss gf180mcu_fd_sc_mcu7t5v0__fill_2
XTAP_TAPCELL_ROW_17_192 vdd vss gf180mcu_fd_sc_mcu7t5v0__filltie
XFILLER_0_17_212 vdd vdd vss vss gf180mcu_fd_sc_mcu7t5v0__fillcap_4
XFILLER_0_9_478 vdd vdd vss vss gf180mcu_fd_sc_mcu7t5v0__fill_2
XANTENNA__0717__A1 net4 vdd vdd vss vss gf180mcu_fd_sc_mcu7t5v0__antenna
XFILLER_0_4_172 vdd vdd vss vss gf180mcu_fd_sc_mcu7t5v0__fill_2
XFILLER_0_13_440 vdd vdd vss vss gf180mcu_fd_sc_mcu7t5v0__fill_2
Xrebuffer8 _0541_ net36 vdd vdd vss vss gf180mcu_fd_sc_mcu7t5v0__buf_2
XANTENNA__0956__A1 _0173_ vdd vdd vss vss gf180mcu_fd_sc_mcu7t5v0__antenna
XANTENNA__1381__A1 _0525_ vdd vdd vss vss gf180mcu_fd_sc_mcu7t5v0__antenna
XANTENNA__1381__B2 _0211_ vdd vdd vss vss gf180mcu_fd_sc_mcu7t5v0__antenna
X_0984_ _0213_ _0221_ _0222_ _0224_ vdd vdd vss vss gf180mcu_fd_sc_mcu7t5v0__or3_1
XFILLER_0_1_142 vdd vdd vss vss gf180mcu_fd_sc_mcu7t5v0__fillcap_4
XFILLER_0_10_410 vdd vdd vss vss gf180mcu_fd_sc_mcu7t5v0__fill_2
XFILLER_0_10_432 vdd vdd vss vss gf180mcu_fd_sc_mcu7t5v0__fillcap_4
XFILLER_0_14_226 vdd vdd vss vss gf180mcu_fd_sc_mcu7t5v0__fill_1
XFILLER_0_14_259 vdd vdd vss vss gf180mcu_fd_sc_mcu7t5v0__fill_2
XFILLER_0_10_465 vdd vdd vss vss gf180mcu_fd_sc_mcu7t5v0__fill_1
XANTENNA__1354__B _0215_ vdd vdd vss vss gf180mcu_fd_sc_mcu7t5v0__antenna
XFILLER_0_9_220 vdd vdd vss vss gf180mcu_fd_sc_mcu7t5v0__fill_2
XFILLER_0_9_253 vdd vdd vss vss gf180mcu_fd_sc_mcu7t5v0__fill_2
XANTENNA__1363__A1 _0283_ vdd vdd vss vss gf180mcu_fd_sc_mcu7t5v0__antenna
XANTENNA__1363__B2 _0228_ vdd vdd vss vss gf180mcu_fd_sc_mcu7t5v0__antenna
XTAP_TAPCELL_ROW_28_265 vdd vss gf180mcu_fd_sc_mcu7t5v0__filltie
XFILLER_0_11_207 vdd vdd vss vss gf180mcu_fd_sc_mcu7t5v0__fill_1
X_1252_ _0505_ _0516_ _0517_ vdd vdd vss vss gf180mcu_fd_sc_mcu7t5v0__nor2_1
X_1321_ _0337_ _0561_ _0568_ _0572_ _0593_ vdd vdd vss vss gf180mcu_fd_sc_mcu7t5v0__or4_1
X_1183_ _0673_ _0414_ _0441_ vdd vdd vss vss gf180mcu_fd_sc_mcu7t5v0__and2_1
XANTENNA__1042__B1 _0210_ vdd vdd vss vss gf180mcu_fd_sc_mcu7t5v0__antenna
XANTENNA__1349__B _0215_ vdd vdd vss vss gf180mcu_fd_sc_mcu7t5v0__antenna
X_0967_ net8 _0086_ _0204_ _0205_ vdd vdd vss vss gf180mcu_fd_sc_mcu7t5v0__oai21_1
X_0898_ _0131_ _0099_ _0134_ vdd vdd vss vss gf180mcu_fd_sc_mcu7t5v0__nand2_1
XFILLER_0_2_473 vdd vdd vss vss gf180mcu_fd_sc_mcu7t5v0__fill_1
XFILLER_0_2_440 vdd vdd vss vss gf180mcu_fd_sc_mcu7t5v0__fill_2
XFILLER_0_10_262 vdd vdd vss vss gf180mcu_fd_sc_mcu7t5v0__fill_1
XFILLER_0_10_251 vdd vdd vss vss gf180mcu_fd_sc_mcu7t5v0__fill_2
XPHY_EDGE_ROW_12_Right_12 vdd vss gf180mcu_fd_sc_mcu7t5v0__endcap
XPHY_EDGE_ROW_21_Right_21 vdd vss gf180mcu_fd_sc_mcu7t5v0__endcap
XTAP_TAPCELL_ROW_25_246 vdd vss gf180mcu_fd_sc_mcu7t5v0__filltie
XFILLER_0_18_340 vdd vdd vss vss gf180mcu_fd_sc_mcu7t5v0__fill_2
XFILLER_0_21_505 vdd vdd vss vss gf180mcu_fd_sc_mcu7t5v0__fillcap_4
XFILLER_0_18_384 vdd vdd vss vss gf180mcu_fd_sc_mcu7t5v0__fill_1
XANTENNA__1336__A1 _0211_ vdd vdd vss vss gf180mcu_fd_sc_mcu7t5v0__antenna
X_0752_ _0201_ _0223_ _0680_ vdd vdd vss vss gf180mcu_fd_sc_mcu7t5v0__and2_1
X_0821_ _0008_ _0053_ _0050_ _0057_ vdd vdd vss vss gf180mcu_fd_sc_mcu7t5v0__aoi21_2
XANTENNA__1327__A1 _0280_ vdd vdd vss vss gf180mcu_fd_sc_mcu7t5v0__antenna
X_1304_ _0337_ _0561_ _0568_ _0572_ _0575_ vdd vdd vss vss gf180mcu_fd_sc_mcu7t5v0__nor4_4
X_1235_ _0211_ _0498_ _0499_ vdd vdd vss vss gf180mcu_fd_sc_mcu7t5v0__nor2_1
X_1166_ _0321_ _0416_ _0418_ _0423_ vdd vdd vss vss gf180mcu_fd_sc_mcu7t5v0__oai21_1
XTAP_TAPCELL_ROW_22_227 vdd vss gf180mcu_fd_sc_mcu7t5v0__filltie
X_1097_ _0387_ _0086_ _0346_ _0347_ vdd vdd vss vss gf180mcu_fd_sc_mcu7t5v0__oai21_4
XFILLER_0_27_181 vdd vdd vss vss gf180mcu_fd_sc_mcu7t5v0__fill_2
XANTENNA__1318__A1 _0280_ vdd vdd vss vss gf180mcu_fd_sc_mcu7t5v0__antenna
XANTENNA__0780__A2 _0672_ vdd vdd vss vss gf180mcu_fd_sc_mcu7t5v0__antenna
XANTENNA__1309__A1 _0280_ vdd vdd vss vss gf180mcu_fd_sc_mcu7t5v0__antenna
X_1020_ _0173_ _0176_ _0262_ _0263_ vdd vdd vss vss gf180mcu_fd_sc_mcu7t5v0__nand3_4
X_0804_ _0038_ _0029_ _0040_ vdd vdd vss vss gf180mcu_fd_sc_mcu7t5v0__nor2_2
XFILLER_0_24_162 vdd vdd vss vss gf180mcu_fd_sc_mcu7t5v0__fill_2
X_0735_ net40 _0646_ _0656_ vdd vdd vss vss gf180mcu_fd_sc_mcu7t5v0__nand2_1
XFILLER_0_12_379 vdd vdd vss vss gf180mcu_fd_sc_mcu7t5v0__fillcap_4
X_1149_ net3 net11 _0404_ vdd vdd vss vss gf180mcu_fd_sc_mcu7t5v0__or2_1
XFILLER_0_1_40 vdd vdd vss vss gf180mcu_fd_sc_mcu7t5v0__fill_1
X_1218_ _0447_ _0479_ _0480_ vdd vdd vss vss gf180mcu_fd_sc_mcu7t5v0__and2_1
Xrebuffer18 _0240_ net46 vdd vdd vss vss gf180mcu_fd_sc_mcu7t5v0__buf_2
X_1003_ net46 _0241_ _0242_ _0243_ _0244_ vdd vdd vss vss gf180mcu_fd_sc_mcu7t5v0__oai22_4
XFILLER_0_16_41 vdd vdd vss vss gf180mcu_fd_sc_mcu7t5v0__fill_1
XFILLER_0_29_221 vdd vdd vss vss gf180mcu_fd_sc_mcu7t5v0__fill_2
XFILLER_0_29_210 vdd vdd vss vss gf180mcu_fd_sc_mcu7t5v0__fillcap_4
XFILLER_0_17_438 vdd vdd vss vss gf180mcu_fd_sc_mcu7t5v0__fillcap_4
XFILLER_0_8_104 vdd vdd vss vss gf180mcu_fd_sc_mcu7t5v0__fill_1
X_0718_ _0409_ net12 _0475_ vdd vdd vss vss gf180mcu_fd_sc_mcu7t5v0__nand2_2
XPHY_EDGE_ROW_6_Right_6 vdd vss gf180mcu_fd_sc_mcu7t5v0__endcap
XANTENNA_input11_I b[2] vdd vdd vss vss gf180mcu_fd_sc_mcu7t5v0__antenna
XANTENNA__0983__A2 _0208_ vdd vdd vss vss gf180mcu_fd_sc_mcu7t5v0__antenna
Xoutput21 net21 out[1] vdd vdd vss vss gf180mcu_fd_sc_mcu7t5v0__clkbuf_3
XFILLER_0_9_2 vdd vdd vss vss gf180mcu_fd_sc_mcu7t5v0__fillcap_4
XANTENNA__0735__A2 _0646_ vdd vdd vss vss gf180mcu_fd_sc_mcu7t5v0__antenna
XFILLER_0_1_346 vdd vdd vss vss gf180mcu_fd_sc_mcu7t5v0__fill_2
XANTENNA_input3_I a[2] vdd vdd vss vss gf180mcu_fd_sc_mcu7t5v0__antenna
XFILLER_0_17_246 vdd vdd vss vss gf180mcu_fd_sc_mcu7t5v0__fill_1
XFILLER_0_7_61 vdd vdd vss vss gf180mcu_fd_sc_mcu7t5v0__fill_2
XFILLER_0_7_72 vdd vdd vss vss gf180mcu_fd_sc_mcu7t5v0__fill_2
Xrebuffer9 _0541_ net37 vdd vdd vss vss gf180mcu_fd_sc_mcu7t5v0__clkbuf_1
XANTENNA__1381__A2 _0639_ vdd vdd vss vss gf180mcu_fd_sc_mcu7t5v0__antenna
XFILLER_0_27_500 vdd vdd vss vss gf180mcu_fd_sc_mcu7t5v0__fillcap_8
XFILLER_0_13_53 vdd vdd vss vss gf180mcu_fd_sc_mcu7t5v0__fill_1
X_0983_ _0097_ _0208_ _0210_ net8 _0222_ vdd vdd vss vss gf180mcu_fd_sc_mcu7t5v0__oai22_1
XFILLER_0_14_238 vdd vdd vss vss gf180mcu_fd_sc_mcu7t5v0__fill_1
XFILLER_0_22_271 vdd vdd vss vss gf180mcu_fd_sc_mcu7t5v0__fill_1
XTAP_TAPCELL_ROW_3_90 vdd vss gf180mcu_fd_sc_mcu7t5v0__filltie
XTAP_TAPCELL_ROW_6_109 vdd vss gf180mcu_fd_sc_mcu7t5v0__filltie
XFILLER_0_13_282 vdd vdd vss vss gf180mcu_fd_sc_mcu7t5v0__fillcap_8
XTAP_TAPCELL_ROW_28_266 vdd vss gf180mcu_fd_sc_mcu7t5v0__filltie
XTAP_TAPCELL_ROW_11_144 vdd vss gf180mcu_fd_sc_mcu7t5v0__filltie
X_1320_ _0280_ _0582_ _0591_ _0592_ vdd vdd vss vss gf180mcu_fd_sc_mcu7t5v0__nand3_1
XTAP_TAPCELL_ROW_19_200 vdd vss gf180mcu_fd_sc_mcu7t5v0__filltie
X_1251_ _0506_ _0507_ _0512_ _0515_ _0516_ vdd vdd vss vss gf180mcu_fd_sc_mcu7t5v0__nor4_1
X_1182_ _0674_ _0411_ _0440_ vdd vdd vss vss gf180mcu_fd_sc_mcu7t5v0__xor2_1
XANTENNA__1290__A1 _0173_ vdd vdd vss vss gf180mcu_fd_sc_mcu7t5v0__antenna
XFILLER_0_27_352 vdd vdd vss vss gf180mcu_fd_sc_mcu7t5v0__fillcap_4
X_0897_ _0129_ _0132_ _0087_ _0133_ vdd vdd vss vss gf180mcu_fd_sc_mcu7t5v0__oai21_1
XANTENNA__1042__A1 net16 vdd vdd vss vss gf180mcu_fd_sc_mcu7t5v0__antenna
XANTENNA__1042__B2 net8 vdd vdd vss vss gf180mcu_fd_sc_mcu7t5v0__antenna
X_0966_ net16 _0086_ _0204_ vdd vdd vss vss gf180mcu_fd_sc_mcu7t5v0__nand2_1
XFILLER_0_2_452 vdd vdd vss vss gf180mcu_fd_sc_mcu7t5v0__fill_2
XFILLER_0_4_95 vdd vdd vss vss gf180mcu_fd_sc_mcu7t5v0__fillcap_8
XTAP_TAPCELL_ROW_25_247 vdd vss gf180mcu_fd_sc_mcu7t5v0__filltie
XANTENNA__1033__A1 _0182_ vdd vdd vss vss gf180mcu_fd_sc_mcu7t5v0__antenna
X_0751_ _0343_ _0676_ _0677_ _0678_ _0679_ vdd vdd vss vss gf180mcu_fd_sc_mcu7t5v0__aoi211_4
XFILLER_0_3_238 vdd vdd vss vss gf180mcu_fd_sc_mcu7t5v0__fill_2
XFILLER_0_3_216 vdd vdd vss vss gf180mcu_fd_sc_mcu7t5v0__fillcap_8
XFILLER_0_10_21 vdd vdd vss vss gf180mcu_fd_sc_mcu7t5v0__fill_2
X_0820_ net28 _0054_ _0055_ _0056_ vdd vdd vss vss gf180mcu_fd_sc_mcu7t5v0__oai21_4
XFILLER_0_19_63 vdd vdd vss vss gf180mcu_fd_sc_mcu7t5v0__fill_1
XFILLER_0_19_30 vdd vdd vss vss gf180mcu_fd_sc_mcu7t5v0__fillcap_4
XANTENNA__1327__A2 _0361_ vdd vdd vss vss gf180mcu_fd_sc_mcu7t5v0__antenna
X_1303_ _0561_ _0568_ _0572_ _0337_ _0573_ vdd vdd vss vss gf180mcu_fd_sc_mcu7t5v0__oai31_4
X_1096_ net13 _0086_ _0346_ vdd vdd vss vss gf180mcu_fd_sc_mcu7t5v0__nand2_1
XANTENNA__0838__A1 _0684_ vdd vdd vss vss gf180mcu_fd_sc_mcu7t5v0__antenna
X_1234_ _0493_ _0496_ _0498_ vdd vdd vss vss gf180mcu_fd_sc_mcu7t5v0__and2_1
X_1165_ _0412_ _0414_ _0421_ _0422_ vdd vdd vss vss gf180mcu_fd_sc_mcu7t5v0__nand3_4
XFILLER_0_2_271 vdd vdd vss vss gf180mcu_fd_sc_mcu7t5v0__fillcap_16
XPHY_EDGE_ROW_8_Left_38 vdd vss gf180mcu_fd_sc_mcu7t5v0__endcap
X_0949_ _0145_ _0146_ _0185_ vdd vdd vss vss gf180mcu_fd_sc_mcu7t5v0__nor2_1
XFILLER_0_15_333 vdd vdd vss vss gf180mcu_fd_sc_mcu7t5v0__fill_2
XFILLER_0_2_293 vdd vdd vss vss gf180mcu_fd_sc_mcu7t5v0__fill_1
XANTENNA__1309__A2 _0344_ vdd vdd vss vss gf180mcu_fd_sc_mcu7t5v0__antenna
X_0803_ _0038_ _0676_ _0039_ vdd vdd vss vss gf180mcu_fd_sc_mcu7t5v0__or2_2
X_0734_ _0464_ _0475_ _0646_ vdd vdd vss vss gf180mcu_fd_sc_mcu7t5v0__nand2_2
X_1148_ _0390_ _0391_ _0402_ _0403_ vdd vdd vss vss gf180mcu_fd_sc_mcu7t5v0__oai21_2
XFILLER_0_1_63 vdd vdd vss vss gf180mcu_fd_sc_mcu7t5v0__fillcap_4