*SPEF "ieee 1481-1999"
*DESIGN "fpu8_wrap"
*DATE "11:11:11 Fri 11 11, 1111"
*VENDOR "OpenRCX"
*PROGRAM "Parallel Extraction"
*VERSION "1.0"
*DESIGN_FLOW "NAME_SCOPE LOCAL" "PIN_CAP NONE"
*DIVIDER /
*DELIMITER :
*BUS_DELIMITER []
*T_UNIT 1 NS
*C_UNIT 1 PF
*R_UNIT 1 OHM
*L_UNIT 1 HENRY

*NAME_MAP
*1 a[0]
*2 a[1]
*3 a[2]
*4 a[3]
*5 a[4]
*6 a[5]
*7 a[6]
*8 a[7]
*9 b[0]
*10 b[1]
*11 b[2]
*12 b[3]
*13 b[4]
*14 b[5]
*15 b[6]
*16 b[7]
*17 op[0]
*18 op[1]
*19 op[2]
*20 out[0]
*21 out[1]
*22 out[2]
*23 out[3]
*24 out[4]
*25 out[5]
*26 out[6]
*27 out[7]
*30 _0000_
*31 _0001_
*32 _0002_
*33 _0003_
*34 _0004_
*35 _0005_
*36 _0006_
*37 _0007_
*38 _0008_
*39 _0009_
*40 _0010_
*41 _0011_
*42 _0012_
*43 _0013_
*44 _0014_
*45 _0015_
*46 _0016_
*47 _0017_
*48 _0018_
*49 _0019_
*50 _0020_
*51 _0021_
*52 _0022_
*53 _0023_
*54 _0024_
*55 _0025_
*56 _0026_
*57 _0027_
*58 _0028_
*59 _0029_
*60 _0030_
*61 _0031_
*62 _0032_
*63 _0033_
*64 _0034_
*65 _0035_
*66 _0036_
*67 _0037_
*68 _0038_
*69 _0039_
*70 _0040_
*71 _0041_
*72 _0042_
*73 _0043_
*74 _0044_
*75 _0045_
*76 _0046_
*77 _0047_
*78 _0048_
*79 _0049_
*80 _0050_
*81 _0051_
*82 _0052_
*83 _0053_
*84 _0054_
*85 _0055_
*86 _0056_
*87 _0057_
*88 _0058_
*89 _0059_
*90 _0060_
*91 _0061_
*92 _0062_
*93 _0063_
*94 _0064_
*95 _0065_
*96 _0066_
*97 _0067_
*98 _0068_
*99 _0069_
*100 _0070_
*101 _0071_
*102 _0072_
*103 _0073_
*104 _0074_
*105 _0075_
*106 _0076_
*107 _0077_
*108 _0078_
*109 _0079_
*110 _0080_
*111 _0081_
*112 _0082_
*113 _0083_
*114 _0084_
*115 _0085_
*116 _0086_
*117 _0087_
*118 _0088_
*119 _0089_
*120 _0090_
*121 _0091_
*122 _0092_
*123 _0093_
*124 _0094_
*125 _0095_
*126 _0096_
*127 _0097_
*128 _0098_
*129 _0099_
*130 _0100_
*131 _0101_
*132 _0102_
*133 _0103_
*134 _0104_
*135 _0105_
*136 _0106_
*137 _0107_
*138 _0108_
*139 _0109_
*140 _0110_
*141 _0111_
*142 _0112_
*143 _0113_
*144 _0114_
*145 _0115_
*146 _0116_
*147 _0117_
*148 _0118_
*149 _0119_
*150 _0120_
*151 _0121_
*152 _0122_
*153 _0123_
*154 _0124_
*155 _0125_
*156 _0126_
*157 _0127_
*158 _0128_
*159 _0129_
*160 _0130_
*161 _0131_
*162 _0132_
*163 _0133_
*164 _0134_
*165 _0135_
*166 _0136_
*167 _0137_
*168 _0138_
*169 _0139_
*170 _0140_
*171 _0141_
*172 _0142_
*173 _0143_
*174 _0144_
*175 _0145_
*176 _0146_
*177 _0147_
*178 _0148_
*179 _0149_
*180 _0150_
*181 _0151_
*182 _0152_
*183 _0153_
*184 _0154_
*185 _0155_
*186 _0156_
*187 _0157_
*188 _0158_
*189 _0159_
*190 _0160_
*191 _0161_
*192 _0162_
*193 _0163_
*194 _0164_
*195 _0165_
*196 _0166_
*197 _0167_
*198 _0168_
*199 _0169_
*200 _0170_
*201 _0171_
*202 _0172_
*203 _0173_
*204 _0174_
*205 _0175_
*206 _0176_
*207 _0177_
*208 _0178_
*209 _0179_
*210 _0180_
*211 _0181_
*212 _0182_
*213 _0183_
*214 _0184_
*215 _0185_
*216 _0186_
*217 _0187_
*218 _0188_
*219 _0189_
*220 _0190_
*221 _0191_
*222 _0192_
*223 _0193_
*224 _0194_
*225 _0195_
*226 _0196_
*227 _0197_
*228 _0198_
*229 _0199_
*230 _0200_
*231 _0201_
*232 _0202_
*233 _0203_
*234 _0204_
*235 _0205_
*236 _0206_
*237 _0207_
*238 _0208_
*239 _0209_
*240 _0210_
*241 _0211_
*242 _0212_
*243 _0213_
*244 _0214_
*245 _0215_
*246 _0216_
*247 _0217_
*248 _0218_
*249 _0219_
*250 _0220_
*251 _0221_
*252 _0222_
*253 _0223_
*254 _0224_
*255 _0225_
*256 _0226_
*257 _0227_
*258 _0228_
*259 _0229_
*260 _0230_
*261 _0231_
*262 _0232_
*263 _0233_
*264 _0234_
*265 _0235_
*266 _0236_
*267 _0237_
*268 _0238_
*269 _0239_
*270 _0240_
*271 _0241_
*272 _0242_
*273 _0243_
*274 _0244_
*275 _0245_
*276 _0246_
*277 _0247_
*278 _0248_
*279 _0249_
*280 _0250_
*281 _0251_
*282 _0252_
*283 _0253_
*284 _0254_
*285 _0255_
*286 _0256_
*287 _0257_
*288 _0258_
*289 _0259_
*290 _0260_
*291 _0261_
*292 _0262_
*293 _0263_
*294 _0264_
*295 _0265_
*296 _0266_
*297 _0267_
*298 _0268_
*299 _0269_
*300 _0270_
*301 _0271_
*302 _0272_
*303 _0273_
*304 _0274_
*305 _0275_
*306 _0276_
*307 _0277_
*308 _0278_
*309 _0279_
*310 _0280_
*311 _0281_
*312 _0282_
*313 _0283_
*314 _0284_
*315 _0285_
*316 _0286_
*317 _0287_
*318 _0288_
*319 _0289_
*320 _0290_
*321 _0291_
*322 _0292_
*323 _0293_
*324 _0294_
*325 _0295_
*326 _0296_
*327 _0297_
*328 _0298_
*329 _0299_
*330 _0300_
*331 _0301_
*332 _0302_
*333 _0303_
*334 _0304_
*335 _0305_
*336 _0306_
*337 _0307_
*338 _0308_
*339 _0309_
*340 _0310_
*341 _0311_
*342 _0312_
*343 _0313_
*344 _0314_
*345 _0315_
*346 _0316_
*347 _0317_
*348 _0318_
*349 _0319_
*350 _0320_
*351 _0321_
*352 _0322_
*353 _0323_
*354 _0324_
*355 _0325_
*356 _0326_
*357 _0327_
*358 _0328_
*359 _0329_
*360 _0330_
*361 _0331_
*362 _0332_
*363 _0333_
*364 _0334_
*365 _0335_
*366 _0336_
*367 _0337_
*368 _0338_
*369 _0339_
*370 _0340_
*371 _0341_
*372 _0342_
*373 _0343_
*374 _0344_
*375 _0345_
*376 _0346_
*377 _0347_
*378 _0348_
*379 _0349_
*380 _0350_
*381 _0351_
*382 _0352_
*383 _0353_
*384 _0354_
*385 _0355_
*386 _0356_
*387 _0357_
*388 _0358_
*389 _0359_
*390 _0360_
*391 _0361_
*392 _0362_
*393 _0363_
*394 _0364_
*395 _0365_
*396 _0366_
*397 _0367_
*398 _0368_
*399 _0369_
*400 _0370_
*401 _0371_
*402 _0372_
*403 _0373_
*404 _0374_
*405 _0375_
*406 _0376_
*407 _0377_
*408 _0378_
*409 _0379_
*410 _0380_
*411 _0381_
*412 _0382_
*413 _0383_
*414 _0384_
*415 _0385_
*416 _0386_
*417 _0387_
*418 _0388_
*419 _0389_
*420 _0390_
*421 _0391_
*422 _0392_
*423 _0393_
*424 _0394_
*425 _0395_
*426 _0396_
*427 _0397_
*428 _0398_
*429 _0399_
*430 _0400_
*431 _0401_
*432 _0402_
*433 _0403_
*434 _0404_
*435 _0405_
*436 _0406_
*437 _0407_
*438 _0408_
*439 _0409_
*440 _0410_
*441 _0411_
*442 _0412_
*443 _0413_
*444 _0414_
*445 _0415_
*446 _0416_
*447 _0417_
*448 _0418_
*449 _0419_
*450 _0420_
*451 _0421_
*452 _0422_
*453 _0423_
*454 _0424_
*455 _0425_
*456 _0426_
*457 _0427_
*458 _0428_
*459 _0429_
*460 _0430_
*461 _0431_
*462 _0432_
*463 _0433_
*464 _0434_
*465 _0435_
*466 _0436_
*467 _0437_
*468 _0438_
*469 _0439_
*470 _0440_
*471 _0441_
*472 _0442_
*473 _0443_
*474 _0444_
*475 _0445_
*476 _0446_
*477 _0447_
*478 _0448_
*479 _0449_
*480 _0450_
*481 _0451_
*482 _0452_
*483 _0453_
*484 _0454_
*485 _0455_
*486 _0456_
*487 _0457_
*488 _0458_
*489 _0459_
*490 _0460_
*491 _0461_
*492 _0462_
*493 _0463_
*494 _0464_
*495 _0465_
*496 _0466_
*497 _0467_
*498 _0468_
*499 _0469_
*500 _0470_
*501 _0471_
*502 _0472_
*503 _0473_
*504 _0474_
*505 _0475_
*506 _0476_
*507 _0477_
*508 _0478_
*509 _0479_
*510 _0480_
*511 _0481_
*512 _0482_
*513 _0483_
*514 _0484_
*515 _0485_
*516 _0486_
*517 _0487_
*518 _0488_
*519 _0489_
*520 _0490_
*521 _0491_
*522 _0492_
*523 _0493_
*524 _0494_
*525 _0495_
*526 _0496_
*527 _0497_
*528 _0498_
*529 _0499_
*530 _0500_
*531 _0501_
*532 _0502_
*533 _0503_
*534 _0504_
*535 _0505_
*536 _0506_
*537 _0507_
*538 _0508_
*539 _0509_
*540 _0510_
*541 _0511_
*542 _0512_
*543 _0513_
*544 _0514_
*545 _0515_
*546 _0516_
*547 _0517_
*548 _0518_
*549 _0519_
*550 _0520_
*551 _0521_
*552 _0522_
*553 _0523_
*554 _0524_
*555 _0525_
*556 _0526_
*557 _0527_
*558 _0528_
*559 _0529_
*560 _0530_
*561 _0531_
*562 _0532_
*563 _0533_
*564 _0534_
*565 _0535_
*566 _0536_
*567 _0537_
*568 _0538_
*569 _0539_
*570 _0540_
*571 _0541_
*572 _0542_
*573 _0543_
*574 _0544_
*575 _0545_
*576 _0546_
*577 _0547_
*578 _0548_
*579 _0549_
*580 _0550_
*581 _0551_
*582 _0552_
*583 _0553_
*584 _0554_
*585 _0555_
*586 _0556_
*587 _0557_
*588 _0558_
*589 _0559_
*590 _0560_
*591 _0561_
*592 _0562_
*593 _0563_
*594 _0564_
*595 _0565_
*596 _0566_
*597 _0567_
*598 _0568_
*599 _0569_
*600 _0570_
*601 _0571_
*602 _0572_
*603 _0573_
*604 _0574_
*605 _0575_
*606 _0576_
*607 _0577_
*608 _0578_
*609 _0579_
*610 _0580_
*611 _0581_
*612 _0582_
*613 _0583_
*614 _0584_
*615 _0585_
*616 _0586_
*617 _0587_
*618 _0588_
*619 _0589_
*620 _0590_
*621 _0591_
*622 _0592_
*623 _0593_
*624 _0594_
*625 _0595_
*626 _0596_
*627 _0597_
*628 _0598_
*629 _0599_
*630 _0600_
*631 _0601_
*632 _0602_
*633 _0603_
*634 _0604_
*635 _0605_
*636 _0606_
*637 _0607_
*638 _0608_
*639 _0609_
*640 _0610_
*641 _0611_
*642 _0612_
*643 _0613_
*644 _0614_
*645 _0615_
*646 _0616_
*647 _0617_
*648 _0618_
*649 _0619_
*650 _0620_
*651 _0621_
*652 _0622_
*653 _0623_
*654 _0624_
*655 _0625_
*656 _0626_
*657 _0627_
*658 _0628_
*659 _0629_
*660 _0630_
*661 _0631_
*662 _0632_
*663 _0633_
*664 _0634_
*665 _0635_
*666 _0636_
*667 _0637_
*668 _0638_
*669 _0639_
*670 _0640_
*671 _0641_
*672 _0642_
*673 _0643_
*674 _0644_
*675 _0645_
*676 _0646_
*677 _0647_
*678 _0648_
*679 _0649_
*680 _0650_
*681 _0651_
*682 _0652_
*683 _0653_
*684 _0654_
*685 _0655_
*686 _0656_
*687 _0657_
*688 _0658_
*689 _0659_
*690 _0660_
*691 _0661_
*692 _0662_
*693 _0663_
*694 _0664_
*695 _0665_
*696 _0666_
*697 _0667_
*698 _0668_
*699 _0669_
*700 _0670_
*701 _0671_
*702 _0672_
*703 _0673_
*704 _0674_
*705 _0675_
*706 _0676_
*707 _0677_
*708 _0678_
*709 _0679_
*710 _0680_
*711 _0681_
*712 _0682_
*713 _0683_
*714 _0684_
*715 _0685_
*716 _0686_
*717 _0687_
*718 _0688_
*719 _0689_
*720 _0690_
*721 _0691_
*722 net1
*723 net10
*724 net11
*725 net12
*726 net13
*727 net14
*728 net15
*729 net16
*730 net17
*731 net18
*732 net19
*733 net2
*734 net20
*735 net21
*736 net22
*737 net23
*738 net24
*739 net25
*740 net26
*741 net27
*742 net28
*743 net29
*744 net3
*745 net30
*746 net31
*747 net32
*748 net33
*749 net34
*750 net35
*751 net36
*752 net37
*753 net38
*754 net39
*755 net4
*756 net40
*757 net41
*758 net42
*759 net43
*760 net44
*761 net45
*762 net46
*763 net47
*764 net48
*765 net49
*766 net5
*767 net50
*768 net6
*769 net7
*770 net8
*771 net9
*772 ANTENNA__0693__A2
*773 ANTENNA__0694__I
*774 ANTENNA__0695__A2
*775 ANTENNA__0700__B2
*776 ANTENNA__0702__A2
*777 ANTENNA__0703__A3
*778 ANTENNA__0712__I
*779 ANTENNA__0714__A2
*780 ANTENNA__0715__B
*781 ANTENNA__0717__A1
*782 ANTENNA__0720__A2
*783 ANTENNA__0721__A2
*784 ANTENNA__0721__A3
*785 ANTENNA__0725__A2
*786 ANTENNA__0727__A2
*787 ANTENNA__0727__A3
*788 ANTENNA__0731__A1
*789 ANTENNA__0731__A2
*790 ANTENNA__0732__I0
*791 ANTENNA__0735__A2
*792 ANTENNA__0736__A2
*793 ANTENNA__0743__A3
*794 ANTENNA__0745__A1
*795 ANTENNA__0745__A2
*796 ANTENNA__0746__A1
*797 ANTENNA__0746__A2
*798 ANTENNA__0757__A2
*799 ANTENNA__0759__A1
*800 ANTENNA__0759__A3
*801 ANTENNA__0764__A3
*802 ANTENNA__0765__A2
*803 ANTENNA__0767__A3
*804 ANTENNA__0771__A1
*805 ANTENNA__0773__A2
*806 ANTENNA__0773__A3
*807 ANTENNA__0774__A1
*808 ANTENNA__0774__A2
*809 ANTENNA__0774__B
*810 ANTENNA__0777__A1
*811 ANTENNA__0777__B
*812 ANTENNA__0779__A1
*813 ANTENNA__0779__A2
*814 ANTENNA__0779__B
*815 ANTENNA__0780__A1
*816 ANTENNA__0780__A2
*817 ANTENNA__0782__A1
*818 ANTENNA__0782__A2
*819 ANTENNA__0783__A1
*820 ANTENNA__0783__A2
*821 ANTENNA__0784__A1
*822 ANTENNA__0785__A1
*823 ANTENNA__0785__B
*824 ANTENNA__0786__A2
*825 ANTENNA__0787__A1
*826 ANTENNA__0787__A2
*827 ANTENNA__0790__A2
*828 ANTENNA__0792__A1
*829 ANTENNA__0792__B
*830 ANTENNA__0795__A2
*831 ANTENNA__0796__I0
*832 ANTENNA__0797__A2
*833 ANTENNA__0801__A2
*834 ANTENNA__0808__A1
*835 ANTENNA__0808__A2
*836 ANTENNA__0809__A1
*837 ANTENNA__0812__A2
*838 ANTENNA__0817__A2
*839 ANTENNA__0821__A1
*840 ANTENNA__0822__I
*841 ANTENNA__0828__A1
*842 ANTENNA__0828__B
*843 ANTENNA__0831__I0
*844 ANTENNA__0835__A2
*845 ANTENNA__0836__A1
*846 ANTENNA__0836__A2
*847 ANTENNA__0838__A1
*848 ANTENNA__0838__A2
*849 ANTENNA__0838__B
*850 ANTENNA__0850__I
*851 ANTENNA__0851__A1
*852 ANTENNA__0853__B
*853 ANTENNA__0858__A3
*854 ANTENNA__0860__A1
*855 ANTENNA__0861__I
*856 ANTENNA__0862__A1
*857 ANTENNA__0863__A1
*858 ANTENNA__0867__A1
*859 ANTENNA__0869__A1
*860 ANTENNA__0870__B
*861 ANTENNA__0872__A3
*862 ANTENNA__0873__A1
*863 ANTENNA__0908__B
*864 ANTENNA__0910__A2
*865 ANTENNA__0925__A1
*866 ANTENNA__0935__A1
*867 ANTENNA__0936__S
*868 ANTENNA__0945__A1
*869 ANTENNA__0945__A2
*870 ANTENNA__0946__A2
*871 ANTENNA__0952__A1
*872 ANTENNA__0956__A1
*873 ANTENNA__0960__A2
*874 ANTENNA__0966__A1
*875 ANTENNA__0966__A2
*876 ANTENNA__0967__A1
*877 ANTENNA__0967__A2
*878 ANTENNA__0969__A3
*879 ANTENNA__0970__A3
*880 ANTENNA__0971__A2
*881 ANTENNA__0971__A3
*882 ANTENNA__0972__A1
*883 ANTENNA__0973__A1
*884 ANTENNA__0973__A2
*885 ANTENNA__0974__B
*886 ANTENNA__0975__I
*887 ANTENNA__0976__A3
*888 ANTENNA__0977__A3
*889 ANTENNA__0978__A1
*890 ANTENNA__0980__A1
*891 ANTENNA__0980__A2
*892 ANTENNA__0981__A1
*893 ANTENNA__0981__A2
*894 ANTENNA__0982__A1
*895 ANTENNA__0983__A2
*896 ANTENNA__0983__B1
*897 ANTENNA__0983__B2
*898 ANTENNA__0984__A3
*899 ANTENNA__0985__A1
*900 ANTENNA__0985__A2
*901 ANTENNA__0986__A1
*902 ANTENNA__0986__B
*903 ANTENNA__0988__A2
*904 ANTENNA__0988__A3
*905 ANTENNA__0989__A3
*906 ANTENNA__0990__S
*907 ANTENNA__0993__A2
*908 ANTENNA__0994__A1
*909 ANTENNA__1000__A1
*910 ANTENNA__1000__A2
*911 ANTENNA__1009__A2
*912 ANTENNA__1011__A1
*913 ANTENNA__1011__A2
*914 ANTENNA__1017__S
*915 ANTENNA__1020__A1
*916 ANTENNA__1020__A2
*917 ANTENNA__1020__A3
*918 ANTENNA__1026__A1
*919 ANTENNA__1033__A1
*920 ANTENNA__1036__A2
*921 ANTENNA__1038__A3
*922 ANTENNA__1039__A1
*923 ANTENNA__1039__A2
*924 ANTENNA__1040__A1
*925 ANTENNA__1040__A2
*926 ANTENNA__1041__A1
*927 ANTENNA__1042__A1
*928 ANTENNA__1042__A2
*929 ANTENNA__1042__B1
*930 ANTENNA__1042__B2
*931 ANTENNA__1043__A2
*932 ANTENNA__1044__A1
*933 ANTENNA__1048__A1
*934 ANTENNA__1053__A1
*935 ANTENNA__1053__B
*936 ANTENNA__1059__A1
*937 ANTENNA__1072__B2
*938 ANTENNA__1076__B1
*939 ANTENNA__1082__A2
*940 ANTENNA__1087__A2
*941 ANTENNA__1088__A1
*942 ANTENNA__1088__A2
*943 ANTENNA__1089__A2
*944 ANTENNA__1091__A2
*945 ANTENNA__1092__A2
*946 ANTENNA__1093__A2
*947 ANTENNA__1094__A2
*948 ANTENNA__1095__A2
*949 ANTENNA__1096__A2
*950 ANTENNA__1097__A2
*951 ANTENNA__1098__A2
*952 ANTENNA__1099__A2
*953 ANTENNA__1102__B
*954 ANTENNA__1103__A3
*955 ANTENNA__1105__A2
*956 ANTENNA__1111__A1
*957 ANTENNA__1118__A2
*958 ANTENNA__1126__A1
*959 ANTENNA__1127__A1
*960 ANTENNA__1127__A2
*961 ANTENNA__1127__B
*962 ANTENNA__1128__A1
*963 ANTENNA__1129__A1
*964 ANTENNA__1130__A2
*965 ANTENNA__1134__A1
*966 ANTENNA__1134__A2
*967 ANTENNA__1136__I0
*968 ANTENNA__1137__A1
*969 ANTENNA__1141__A1
*970 ANTENNA__1143__A1
*971 ANTENNA__1143__A2
*972 ANTENNA__1147__A1
*973 ANTENNA__1149__A1
*974 ANTENNA__1149__A2
*975 ANTENNA__1150__A1
*976 ANTENNA__1152__A1
*977 ANTENNA__1157__A1
*978 ANTENNA__1162__A1
*979 ANTENNA__1165__A2
*980 ANTENNA__1167__A1
*981 ANTENNA__1173__A1
*982 ANTENNA__1176__A1
*983 ANTENNA__1180__A2
*984 ANTENNA__1183__A1
*985 ANTENNA__1183__A2
*986 ANTENNA__1187__A2
*987 ANTENNA__1188__B
*988 ANTENNA__1189__A1
*989 ANTENNA__1191__A2
*990 ANTENNA__1192__A1
*991 ANTENNA__1195__B
*992 ANTENNA__1195__C
*993 ANTENNA__1203__A1
*994 ANTENNA__1205__A1
*995 ANTENNA__1211__A2
*996 ANTENNA__1212__B
*997 ANTENNA__1214__B2
*998 ANTENNA__1215__A1
*999 ANTENNA__1235__A1
*1000 ANTENNA__1236__C
*1001 ANTENNA__1241__A1
*1002 ANTENNA__1257__A1
*1003 ANTENNA__1260__A2
*1004 ANTENNA__1261__A1
*1005 ANTENNA__1261__A2
*1006 ANTENNA__1261__A3
*1007 ANTENNA__1262__A1
*1008 ANTENNA__1262__A2
*1009 ANTENNA__1264__A2
*1010 ANTENNA__1265__A2
*1011 ANTENNA__1266__A2
*1012 ANTENNA__1267__A1
*1013 ANTENNA__1267__A2
*1014 ANTENNA__1270__A2
*1015 ANTENNA__1275__A1
*1016 ANTENNA__1284__B2
*1017 ANTENNA__1288__I
*1018 ANTENNA__1290__A1
*1019 ANTENNA__1294__A1
*1020 ANTENNA__1294__B2
*1021 ANTENNA__1303__B
*1022 ANTENNA__1304__A1
*1023 ANTENNA__1306__A2
*1024 ANTENNA__1309__A1
*1025 ANTENNA__1309__A2
*1026 ANTENNA__1318__A1
*1027 ANTENNA__1320__A1
*1028 ANTENNA__1321__A1
*1029 ANTENNA__1327__A1
*1030 ANTENNA__1327__A2
*1031 ANTENNA__1336__A1
*1032 ANTENNA__1337__A1
*1033 ANTENNA__1337__A2
*1034 ANTENNA__1337__B
*1035 ANTENNA__1341__A2
*1036 ANTENNA__1342__B
*1037 ANTENNA__1343__A2
*1038 ANTENNA__1343__B
*1039 ANTENNA__1344__A2
*1040 ANTENNA__1346__A1
*1041 ANTENNA__1346__A2
*1042 ANTENNA__1348__A2
*1043 ANTENNA__1349__B
*1044 ANTENNA__1350__B
*1045 ANTENNA__1352__A1
*1046 ANTENNA__1352__A2
*1047 ANTENNA__1354__B
*1048 ANTENNA__1355__B
*1049 ANTENNA__1357__A1
*1050 ANTENNA__1357__A2
*1051 ANTENNA__1359__B
*1052 ANTENNA__1360__A3
*1053 ANTENNA__1363__A1
*1054 ANTENNA__1363__B1
*1055 ANTENNA__1363__B2
*1056 ANTENNA__1365__I
*1057 ANTENNA__1366__B
*1058 ANTENNA__1369__A2
*1059 ANTENNA__1370__A1
*1060 ANTENNA__1376__A1
*1061 ANTENNA__1381__A1
*1062 ANTENNA__1381__A2
*1063 ANTENNA__1381__B2
*1064 ANTENNA__1382__A3
*1065 ANTENNA__1391__A1
*1066 ANTENNA__1391__A2
*1067 ANTENNA__1391__B2
*1068 ANTENNA_input10_I
*1069 ANTENNA_input11_I
*1070 ANTENNA_input12_I
*1071 ANTENNA_input13_I
*1072 ANTENNA_input14_I
*1073 ANTENNA_input15_I
*1074 ANTENNA_input16_I
*1075 ANTENNA_input17_I
*1076 ANTENNA_input18_I
*1077 ANTENNA_input19_I
*1078 ANTENNA_input1_I
*1079 ANTENNA_input2_I
*1080 ANTENNA_input3_I
*1081 ANTENNA_input4_I
*1082 ANTENNA_input5_I
*1083 ANTENNA_input6_I
*1084 ANTENNA_input7_I
*1085 ANTENNA_input8_I
*1086 ANTENNA_input9_I
*1087 ANTENNA_output27_I
*1088 FILLER_0_0_110
*1089 FILLER_0_0_126
*1090 FILLER_0_0_134
*1091 FILLER_0_0_138
*1092 FILLER_0_0_16
*1093 FILLER_0_0_172
*1094 FILLER_0_0_188
*1095 FILLER_0_0_196
*1096 FILLER_0_0_20
*1097 FILLER_0_0_202
*1098 FILLER_0_0_211
*1099 FILLER_0_0_220
*1100 FILLER_0_0_236
*1101 FILLER_0_0_24
*1102 FILLER_0_0_240
*1103 FILLER_0_0_274
*1104 FILLER_0_0_28
*1105 FILLER_0_0_284
*1106 FILLER_0_0_300
*1107 FILLER_0_0_304
*1108 FILLER_0_0_308
*1109 FILLER_0_0_32
*1110 FILLER_0_0_327
*1111 FILLER_0_0_335
*1112 FILLER_0_0_339
*1113 FILLER_0_0_342
*1114 FILLER_0_0_350
*1115 FILLER_0_0_354
*1116 FILLER_0_0_36
*1117 FILLER_0_0_373
*1118 FILLER_0_0_376
*1119 FILLER_0_0_396
*1120 FILLER_0_0_40
*1121 FILLER_0_0_404
*1122 FILLER_0_0_42
*1123 FILLER_0_0_436
*1124 FILLER_0_0_440
*1125 FILLER_0_0_444
*1126 FILLER_0_0_478
*1127 FILLER_0_0_50
*1128 FILLER_0_0_507
*1129 FILLER_0_0_54
*1130 FILLER_0_0_62
*1131 FILLER_0_0_66
*1132 FILLER_0_0_70
*1133 FILLER_0_10_101
*1134 FILLER_0_10_107
*1135 FILLER_0_10_111
*1136 FILLER_0_10_113
*1137 FILLER_0_10_116
*1138 FILLER_0_10_120
*1139 FILLER_0_10_126
*1140 FILLER_0_10_130
*1141 FILLER_0_10_146
*1142 FILLER_0_10_154
*1143 FILLER_0_10_156
*1144 FILLER_0_10_165
*1145 FILLER_0_10_17
*1146 FILLER_0_10_191
*1147 FILLER_0_10_197
*1148 FILLER_0_10_2
*1149 FILLER_0_10_21
*1150 FILLER_0_10_220
*1151 FILLER_0_10_224
*1152 FILLER_0_10_226
*1153 FILLER_0_10_247
*1154 FILLER_0_10_25
*1155 FILLER_0_10_251
*1156 FILLER_0_10_260
*1157 FILLER_0_10_262
*1158 FILLER_0_10_286
*1159 FILLER_0_10_29
*1160 FILLER_0_10_302
*1161 FILLER_0_10_310
*1162 FILLER_0_10_314
*1163 FILLER_0_10_317
*1164 FILLER_0_10_325
*1165 FILLER_0_10_33
*1166 FILLER_0_10_349
*1167 FILLER_0_10_353
*1168 FILLER_0_10_37
*1169 FILLER_0_10_374
*1170 FILLER_0_10_382
*1171 FILLER_0_10_395
*1172 FILLER_0_10_399
*1173 FILLER_0_10_4
*1174 FILLER_0_10_403
*1175 FILLER_0_10_41
*1176 FILLER_0_10_410
*1177 FILLER_0_10_414
*1178 FILLER_0_10_420
*1179 FILLER_0_10_424
*1180 FILLER_0_10_428
*1181 FILLER_0_10_432
*1182 FILLER_0_10_438
*1183 FILLER_0_10_442
*1184 FILLER_0_10_457
*1185 FILLER_0_10_465
*1186 FILLER_0_10_468
*1187 FILLER_0_10_472
*1188 FILLER_0_10_474
*1189 FILLER_0_10_485
*1190 FILLER_0_10_507
*1191 FILLER_0_10_80
*1192 FILLER_0_10_82
*1193 FILLER_0_10_85
*1194 FILLER_0_10_95
*1195 FILLER_0_11_107
*1196 FILLER_0_11_109
*1197 FILLER_0_11_127
*1198 FILLER_0_11_131
*1199 FILLER_0_11_135
*1200 FILLER_0_11_139
*1201 FILLER_0_11_142
*1202 FILLER_0_11_144
*1203 FILLER_0_11_147
*1204 FILLER_0_11_161
*1205 FILLER_0_11_165
*1206 FILLER_0_11_183
*1207 FILLER_0_11_187
*1208 FILLER_0_11_191
*1209 FILLER_0_11_2
*1210 FILLER_0_11_205
*1211 FILLER_0_11_207
*1212 FILLER_0_11_234
*1213 FILLER_0_11_249
*1214 FILLER_0_11_253
*1215 FILLER_0_11_261
*1216 FILLER_0_11_263
*1217 FILLER_0_11_270
*1218 FILLER_0_11_278
*1219 FILLER_0_11_282
*1220 FILLER_0_11_290
*1221 FILLER_0_11_332
*1222 FILLER_0_11_348
*1223 FILLER_0_11_352
*1224 FILLER_0_11_356
*1225 FILLER_0_11_379
*1226 FILLER_0_11_383
*1227 FILLER_0_11_39
*1228 FILLER_0_11_396
*1229 FILLER_0_11_4
*1230 FILLER_0_11_404
*1231 FILLER_0_11_406
*1232 FILLER_0_11_409
*1233 FILLER_0_11_418
*1234 FILLER_0_11_433
*1235 FILLER_0_11_437
*1236 FILLER_0_11_451
*1237 FILLER_0_11_455
*1238 FILLER_0_11_459
*1239 FILLER_0_11_463
*1240 FILLER_0_11_467
*1241 FILLER_0_11_470
*1242 FILLER_0_11_488
*1243 FILLER_0_11_492
*1244 FILLER_0_11_56
*1245 FILLER_0_11_62
*1246 FILLER_0_11_66
*1247 FILLER_0_11_72
*1248 FILLER_0_11_76
*1249 FILLER_0_11_80
*1250 FILLER_0_11_84
*1251 FILLER_0_11_88
*1252 FILLER_0_11_92
*1253 FILLER_0_12_107
*1254 FILLER_0_12_111
*1255 FILLER_0_12_117
*1256 FILLER_0_12_119
*1257 FILLER_0_12_16
*1258 FILLER_0_12_166
*1259 FILLER_0_12_170
*1260 FILLER_0_12_174
*1261 FILLER_0_12_189
*1262 FILLER_0_12_221
*1263 FILLER_0_12_223
*1264 FILLER_0_12_247
*1265 FILLER_0_12_251
*1266 FILLER_0_12_259
*1267 FILLER_0_12_311
*1268 FILLER_0_12_317
*1269 FILLER_0_12_321
*1270 FILLER_0_12_363
*1271 FILLER_0_12_37
*1272 FILLER_0_12_379
*1273 FILLER_0_12_383
*1274 FILLER_0_12_387
*1275 FILLER_0_12_389
*1276 FILLER_0_12_39
*1277 FILLER_0_12_392
*1278 FILLER_0_12_401
*1279 FILLER_0_12_407
*1280 FILLER_0_12_415
*1281 FILLER_0_12_42
*1282 FILLER_0_12_429
*1283 FILLER_0_12_435
*1284 FILLER_0_12_439
*1285 FILLER_0_12_441
*1286 FILLER_0_12_450
*1287 FILLER_0_12_454
*1288 FILLER_0_12_46
*1289 FILLER_0_12_468
*1290 FILLER_0_12_472
*1291 FILLER_0_12_476
*1292 FILLER_0_12_50
*1293 FILLER_0_12_54
*1294 FILLER_0_12_74
*1295 FILLER_0_12_78
*1296 FILLER_0_13_109
*1297 FILLER_0_13_113
*1298 FILLER_0_13_115
*1299 FILLER_0_13_139
*1300 FILLER_0_13_148
*1301 FILLER_0_13_152
*1302 FILLER_0_13_191
*1303 FILLER_0_13_195
*1304 FILLER_0_13_198
*1305 FILLER_0_13_2
*1306 FILLER_0_13_202
*1307 FILLER_0_13_206
*1308 FILLER_0_13_216
*1309 FILLER_0_13_218
*1310 FILLER_0_13_231
*1311 FILLER_0_13_233
*1312 FILLER_0_13_247
*1313 FILLER_0_13_251
*1314 FILLER_0_13_273
*1315 FILLER_0_13_277
*1316 FILLER_0_13_279
*1317 FILLER_0_13_282
*1318 FILLER_0_13_290
*1319 FILLER_0_13_312
*1320 FILLER_0_13_314
*1321 FILLER_0_13_352
*1322 FILLER_0_13_373
*1323 FILLER_0_13_381
*1324 FILLER_0_13_398
*1325 FILLER_0_13_414
*1326 FILLER_0_13_418
*1327 FILLER_0_13_440
*1328 FILLER_0_13_442
*1329 FILLER_0_13_469
*1330 FILLER_0_13_471
*1331 FILLER_0_13_492
*1332 FILLER_0_13_494
*1333 FILLER_0_13_505
*1334 FILLER_0_13_51
*1335 FILLER_0_13_53
*1336 FILLER_0_13_69
*1337 FILLER_0_13_76
*1338 FILLER_0_14_107
*1339 FILLER_0_14_111
*1340 FILLER_0_14_15
*1341 FILLER_0_14_172
*1342 FILLER_0_14_174
*1343 FILLER_0_14_197
*1344 FILLER_0_14_224
*1345 FILLER_0_14_226
*1346 FILLER_0_14_234
*1347 FILLER_0_14_238
*1348 FILLER_0_14_244
*1349 FILLER_0_14_247
*1350 FILLER_0_14_255
*1351 FILLER_0_14_259
*1352 FILLER_0_14_311
*1353 FILLER_0_14_317
*1354 FILLER_0_14_321
*1355 FILLER_0_14_34
*1356 FILLER_0_14_343
*1357 FILLER_0_14_347
*1358 FILLER_0_14_368
*1359 FILLER_0_14_37
*1360 FILLER_0_14_384
*1361 FILLER_0_14_39
*1362 FILLER_0_14_395
*1363 FILLER_0_14_42
*1364 FILLER_0_14_429
*1365 FILLER_0_14_433
*1366 FILLER_0_14_436
*1367 FILLER_0_14_440
*1368 FILLER_0_14_450
*1369 FILLER_0_14_452
*1370 FILLER_0_14_46
*1371 FILLER_0_14_467
*1372 FILLER_0_14_471
*1373 FILLER_0_14_48
*1374 FILLER_0_14_75
*1375 FILLER_0_14_79
*1376 FILLER_0_15_142
*1377 FILLER_0_15_144
*1378 FILLER_0_15_199
*1379 FILLER_0_15_2
*1380 FILLER_0_15_230
*1381 FILLER_0_15_243
*1382 FILLER_0_15_259
*1383 FILLER_0_15_261
*1384 FILLER_0_15_282
*1385 FILLER_0_15_286
*1386 FILLER_0_15_309
*1387 FILLER_0_15_333
*1388 FILLER_0_15_337
*1389 FILLER_0_15_341
*1390 FILLER_0_15_349
*1391 FILLER_0_15_352
*1392 FILLER_0_15_370
*1393 FILLER_0_15_378
*1394 FILLER_0_15_382
*1395 FILLER_0_15_390
*1396 FILLER_0_15_394
*1397 FILLER_0_15_400
*1398 FILLER_0_15_408
*1399 FILLER_0_15_434
*1400 FILLER_0_15_438
*1401 FILLER_0_15_45
*1402 FILLER_0_15_454
*1403 FILLER_0_15_462
*1404 FILLER_0_15_478
*1405 FILLER_0_15_482
*1406 FILLER_0_15_488
*1407 FILLER_0_15_492
*1408 FILLER_0_15_494
*1409 FILLER_0_15_51
*1410 FILLER_0_15_53
*1411 FILLER_0_15_56
*1412 FILLER_0_16_10
*1413 FILLER_0_16_103
*1414 FILLER_0_16_174
*1415 FILLER_0_16_189
*1416 FILLER_0_16_200
*1417 FILLER_0_16_222
*1418 FILLER_0_16_247
*1419 FILLER_0_16_260
*1420 FILLER_0_16_270
*1421 FILLER_0_16_286
*1422 FILLER_0_16_294
*1423 FILLER_0_16_296
*1424 FILLER_0_16_303
*1425 FILLER_0_16_311
*1426 FILLER_0_16_32
*1427 FILLER_0_16_34
*1428 FILLER_0_16_358
*1429 FILLER_0_16_362
*1430 FILLER_0_16_37
*1431 FILLER_0_16_370
*1432 FILLER_0_16_374
*1433 FILLER_0_16_376
*1434 FILLER_0_16_405
*1435 FILLER_0_16_41
*1436 FILLER_0_16_419
*1437 FILLER_0_16_457
*1438 FILLER_0_16_461
*1439 FILLER_0_16_473
*1440 FILLER_0_16_62
*1441 FILLER_0_16_81
*1442 FILLER_0_17_125
*1443 FILLER_0_17_2
*1444 FILLER_0_17_208
*1445 FILLER_0_17_212
*1446 FILLER_0_17_216
*1447 FILLER_0_17_242
*1448 FILLER_0_17_246
*1449 FILLER_0_17_304
*1450 FILLER_0_17_306
*1451 FILLER_0_17_342
*1452 FILLER_0_17_344
*1453 FILLER_0_17_362
*1454 FILLER_0_17_389
*1455 FILLER_0_17_395
*1456 FILLER_0_17_4
*1457 FILLER_0_17_403
*1458 FILLER_0_17_422
*1459 FILLER_0_17_426
*1460 FILLER_0_17_430
*1461 FILLER_0_17_438
*1462 FILLER_0_17_442
*1463 FILLER_0_17_489
*1464 FILLER_0_17_88
*1465 FILLER_0_18_10
*1466 FILLER_0_18_16
*1467 FILLER_0_18_177
*1468 FILLER_0_18_179
*1469 FILLER_0_18_217
*1470 FILLER_0_18_23
*1471 FILLER_0_18_247
*1472 FILLER_0_18_25
*1473 FILLER_0_18_263
*1474 FILLER_0_18_28
*1475 FILLER_0_18_291
*1476 FILLER_0_18_307
*1477 FILLER_0_18_317
*1478 FILLER_0_18_32
*1479 FILLER_0_18_321
*1480 FILLER_0_18_34
*1481 FILLER_0_18_340
*1482 FILLER_0_18_342
*1483 FILLER_0_18_345
*1484 FILLER_0_18_37
*1485 FILLER_0_18_376
*1486 FILLER_0_18_384
*1487 FILLER_0_18_397
*1488 FILLER_0_18_399
*1489 FILLER_0_18_447
*1490 FILLER_0_18_451
*1491 FILLER_0_18_90
*1492 FILLER_0_18_94
*1493 FILLER_0_19_142
*1494 FILLER_0_19_15
*1495 FILLER_0_19_2
*1496 FILLER_0_19_226
*1497 FILLER_0_19_230
*1498 FILLER_0_19_250
*1499 FILLER_0_19_254
*1500 FILLER_0_19_271
*1501 FILLER_0_19_279
*1502 FILLER_0_19_293
*1503 FILLER_0_19_295
*1504 FILLER_0_19_30
*1505 FILLER_0_19_304
*1506 FILLER_0_19_34
*1507 FILLER_0_19_341
*1508 FILLER_0_19_345
*1509 FILLER_0_19_347
*1510 FILLER_0_19_352
*1511 FILLER_0_19_354
*1512 FILLER_0_19_4
*1513 FILLER_0_19_462
*1514 FILLER_0_19_492
*1515 FILLER_0_19_508
*1516 FILLER_0_19_63
*1517 FILLER_0_19_86
*1518 FILLER_0_1_12
*1519 FILLER_0_1_136
*1520 FILLER_0_1_14
*1521 FILLER_0_1_142
*1522 FILLER_0_1_169
*1523 FILLER_0_1_17
*1524 FILLER_0_1_209
*1525 FILLER_0_1_21
*1526 FILLER_0_1_222
*1527 FILLER_0_1_237
*1528 FILLER_0_1_239
*1529 FILLER_0_1_248
*1530 FILLER_0_1_25
*1531 FILLER_0_1_256
*1532 FILLER_0_1_288
*1533 FILLER_0_1_304
*1534 FILLER_0_1_308
*1535 FILLER_0_1_325
*1536 FILLER_0_1_329
*1537 FILLER_0_1_331
*1538 FILLER_0_1_342
*1539 FILLER_0_1_346
*1540 FILLER_0_1_352
*1541 FILLER_0_1_354
*1542 FILLER_0_1_36
*1543 FILLER_0_1_360
*1544 FILLER_0_1_398
*1545 FILLER_0_1_40
*1546 FILLER_0_1_406
*1547 FILLER_0_1_410
*1548 FILLER_0_1_419
*1549 FILLER_0_1_422
*1550 FILLER_0_1_450
*1551 FILLER_0_1_49
*1552 FILLER_0_1_492
*1553 FILLER_0_1_496
*1554 FILLER_0_1_498
*1555 FILLER_0_1_63
*1556 FILLER_0_1_67
*1557 FILLER_0_1_69
*1558 FILLER_0_1_72
*1559 FILLER_0_1_78
*1560 FILLER_0_1_8
*1561 FILLER_0_1_92
*1562 FILLER_0_20_10
*1563 FILLER_0_20_12
*1564 FILLER_0_20_170
*1565 FILLER_0_20_174
*1566 FILLER_0_20_242
*1567 FILLER_0_20_244
*1568 FILLER_0_20_31
*1569 FILLER_0_20_313
*1570 FILLER_0_20_384
*1571 FILLER_0_20_387
*1572 FILLER_0_20_454
*1573 FILLER_0_20_457
*1574 FILLER_0_20_58
*1575 FILLER_0_21_2
*1576 FILLER_0_21_209
*1577 FILLER_0_21_212
*1578 FILLER_0_21_214
*1579 FILLER_0_21_263
*1580 FILLER_0_21_279
*1581 FILLER_0_21_333
*1582 FILLER_0_21_337
*1583 FILLER_0_21_349
*1584 FILLER_0_21_403
*1585 FILLER_0_21_432
*1586 FILLER_0_21_476
*1587 FILLER_0_21_48
*1588 FILLER_0_21_492
*1589 FILLER_0_21_494
*1590 FILLER_0_21_505
*1591 FILLER_0_21_72
*1592 FILLER_0_22_206
*1593 FILLER_0_22_226
*1594 FILLER_0_22_256
*1595 FILLER_0_22_263
*1596 FILLER_0_22_267
*1597 FILLER_0_22_271
*1598 FILLER_0_22_304
*1599 FILLER_0_22_312
*1600 FILLER_0_22_37
*1601 FILLER_0_22_384
*1602 FILLER_0_22_41
*1603 FILLER_0_22_475
*1604 FILLER_0_23_139
*1605 FILLER_0_23_142
*1606 FILLER_0_23_187
*1607 FILLER_0_23_220
*1608 FILLER_0_23_263
*1609 FILLER_0_23_282
*1610 FILLER_0_23_290
*1611 FILLER_0_23_327
*1612 FILLER_0_23_349
*1613 FILLER_0_23_352
*1614 FILLER_0_23_356
*1615 FILLER_0_23_360
*1616 FILLER_0_23_400
*1617 FILLER_0_23_402
*1618 FILLER_0_23_416
*1619 FILLER_0_23_479
*1620 FILLER_0_23_492
*1621 FILLER_0_23_87
*1622 FILLER_0_23_89
*1623 FILLER_0_24_101
*1624 FILLER_0_24_120
*1625 FILLER_0_24_162
*1626 FILLER_0_24_164
*1627 FILLER_0_24_2
*1628 FILLER_0_24_211
*1629 FILLER_0_24_244
*1630 FILLER_0_24_265
*1631 FILLER_0_24_267
*1632 FILLER_0_24_292
*1633 FILLER_0_24_308
*1634 FILLER_0_24_312
*1635 FILLER_0_24_314
*1636 FILLER_0_24_317
*1637 FILLER_0_24_325
*1638 FILLER_0_24_37
*1639 FILLER_0_24_457
*1640 FILLER_0_24_471
*1641 FILLER_0_24_65
*1642 FILLER_0_25_142
*1643 FILLER_0_25_192
*1644 FILLER_0_25_203
*1645 FILLER_0_25_220
*1646 FILLER_0_25_222
*1647 FILLER_0_25_276
*1648 FILLER_0_25_315
*1649 FILLER_0_25_339
*1650 FILLER_0_25_341
*1651 FILLER_0_25_388
*1652 FILLER_0_25_392
*1653 FILLER_0_25_459
*1654 FILLER_0_25_463
*1655 FILLER_0_25_472
*1656 FILLER_0_25_485
*1657 FILLER_0_25_489
*1658 FILLER_0_25_492
*1659 FILLER_0_25_506
*1660 FILLER_0_25_508
*1661 FILLER_0_25_72
*1662 FILLER_0_26_107
*1663 FILLER_0_26_111
*1664 FILLER_0_26_177
*1665 FILLER_0_26_2
*1666 FILLER_0_26_227
*1667 FILLER_0_26_229
*1668 FILLER_0_26_256
*1669 FILLER_0_26_286
*1670 FILLER_0_26_290
*1671 FILLER_0_26_31
*1672 FILLER_0_26_312
*1673 FILLER_0_26_314
*1674 FILLER_0_26_317
*1675 FILLER_0_26_321
*1676 FILLER_0_26_362
*1677 FILLER_0_26_387
*1678 FILLER_0_26_395
*1679 FILLER_0_26_399
*1680 FILLER_0_26_440
*1681 FILLER_0_26_451
*1682 FILLER_0_26_475
*1683 FILLER_0_26_479
*1684 FILLER_0_26_481
*1685 FILLER_0_26_6
*1686 FILLER_0_27_12
*1687 FILLER_0_27_138
*1688 FILLER_0_27_14
*1689 FILLER_0_27_181
*1690 FILLER_0_27_183
*1691 FILLER_0_27_212
*1692 FILLER_0_27_224
*1693 FILLER_0_27_278
*1694 FILLER_0_27_293
*1695 FILLER_0_27_297
*1696 FILLER_0_27_33
*1697 FILLER_0_27_345
*1698 FILLER_0_27_349
*1699 FILLER_0_27_352
*1700 FILLER_0_27_380
*1701 FILLER_0_27_382
*1702 FILLER_0_27_412
*1703 FILLER_0_27_416
*1704 FILLER_0_27_422
*1705 FILLER_0_27_424