*SPEF "ieee 1481-1999"
*DESIGN "rle1_enc_wrap"
*DATE "11:11:11 Fri 11 11, 1111"
*VENDOR "OpenRCX"
*PROGRAM "Parallel Extraction"
*VERSION "1.0"
*DESIGN_FLOW "NAME_SCOPE LOCAL" "PIN_CAP NONE"
*DIVIDER /
*DELIMITER :
*BUS_DELIMITER []
*T_UNIT 1 NS
*C_UNIT 1 PF
*R_UNIT 1 OHM
*L_UNIT 1 HENRY

*NAME_MAP
*1 clk
*2 reset
*3 rle1__input_r[0]
*4 rle1__input_r[1]
*5 rle1__input_r_rdy
*6 rle1__input_r_vld
*7 rle1__output_s[0]
*8 rle1__output_s[1]
*9 rle1__output_s[2]
*10 rle1__output_s[3]
*11 rle1__output_s[4]
*12 rle1__output_s[5]
*13 rle1__output_s_rdy
*14 rle1__output_s_vld
*17 _000_
*18 _001_
*19 _002_
*20 _003_
*21 _004_
*22 _005_
*23 _006_
*24 _007_
*25 _008_
*26 _009_
*27 _010_
*28 _011_
*29 _012_
*30 _013_
*31 _014_
*32 _015_
*33 _016_
*34 _017_
*35 _018_
*36 _019_
*37 _020_
*38 _021_
*39 _022_
*40 _023_
*41 _024_
*42 _025_
*43 _026_
*44 _027_
*45 _028_
*46 _029_
*47 _030_
*48 _031_
*49 _032_
*50 _033_
*51 _034_
*52 _035_
*53 _036_
*54 _037_
*55 _038_
*56 _039_
*57 _040_
*58 _041_
*59 _042_
*60 _043_
*61 _044_
*62 _045_
*63 _046_
*64 _047_
*65 _048_
*66 _049_
*67 _050_
*68 _051_
*69 _052_
*70 _053_
*71 _054_
*72 _055_
*73 _056_
*74 _057_
*75 _058_
*76 _059_
*77 _060_
*78 _061_
*79 _062_
*80 _063_
*81 _064_
*82 _065_
*83 _066_
*84 _067_
*85 _068_
*86 _069_
*87 _070_
*88 _071_
*89 _072_
*90 _073_
*91 _074_
*92 _075_
*93 _076_
*94 _077_
*95 _078_
*96 _079_
*97 _080_
*98 _081_
*99 _082_
*100 _083_
*101 _084_
*102 _085_
*103 _086_
*104 _087_
*105 _088_
*106 _089_
*107 _090_
*108 _091_
*109 _092_
*110 _093_
*111 _094_
*112 clknet_0_clk
*113 clknet_1_0__leaf_clk
*114 clknet_1_1__leaf_clk
*115 net1
*116 net10
*117 net11
*118 net12
*119 net13
*120 net2
*121 net3
*122 net4
*123 net5
*124 net6
*125 net7
*126 net8
*127 net9
*128 rle1_enc_0\.____state_0
*129 rle1_enc_0\.____state_1\[0\]
*130 rle1_enc_0\.____state_1\[1\]
*131 rle1_enc_0\.____state_1\[2\]
*132 rle1_enc_0\.____state_1\[3\]
*133 rle1_enc_0\.____state_2
*134 rle1_enc_0\.__rle1__input_r_reg\[0\]
*135 rle1_enc_0\.__rle1__input_r_reg\[1\]
*136 rle1_enc_0\.__rle1__input_r_valid_reg
*137 rle1_enc_0\.p0_____state_2__1
*138 rle1_enc_0\.p0_input_symbol
*139 rle1_enc_0\.p0_not_196
*140 rle1_enc_0\.p0_valid
*141 ANTENNA__117__A1
*142 ANTENNA__120__A1
*143 ANTENNA__189__B
*144 ANTENNA__190__B
*145 ANTENNA__191__CLK
*146 ANTENNA__192__CLK
*147 ANTENNA__193__CLK
*148 ANTENNA__194__CLK
*149 ANTENNA__195__CLK
*150 ANTENNA__196__CLK
*151 ANTENNA__198__CLK
*152 ANTENNA__201__CLK
*153 ANTENNA__202__CLK
*154 ANTENNA__203__CLK
*155 ANTENNA_clkbuf_0_clk_I
*156 ANTENNA_input1_I
*157 ANTENNA_input2_I
*158 ANTENNA_input3_I
*159 ANTENNA_input4_I
*160 ANTENNA_input5_I
*161 FILLER_0_0_109
*162 FILLER_0_0_138
*163 FILLER_0_0_142
*164 FILLER_0_0_28
*165 FILLER_0_0_32
*166 FILLER_0_0_36
*167 FILLER_0_0_52
*168 FILLER_0_0_55
*169 FILLER_0_0_63
*170 FILLER_0_0_67
*171 FILLER_0_0_70
*172 FILLER_0_0_74
*173 FILLER_0_10_10
*174 FILLER_0_10_104
*175 FILLER_0_10_2
*176 FILLER_0_10_20
*177 FILLER_0_10_28
*178 FILLER_0_10_32
*179 FILLER_0_10_34
*180 FILLER_0_10_72
*181 FILLER_0_10_84
*182 FILLER_0_11_104
*183 FILLER_0_11_150
*184 FILLER_0_11_18
*185 FILLER_0_11_2
*186 FILLER_0_11_20
*187 FILLER_0_11_50
*188 FILLER_0_11_54
*189 FILLER_0_11_72
*190 FILLER_0_12_103
*191 FILLER_0_12_107
*192 FILLER_0_12_12
*193 FILLER_0_12_28
*194 FILLER_0_12_32
*195 FILLER_0_12_34
*196 FILLER_0_12_37
*197 FILLER_0_12_53
*198 FILLER_0_12_75
*199 FILLER_0_12_8
*200 FILLER_0_13_148
*201 FILLER_0_13_18
*202 FILLER_0_13_2
*203 FILLER_0_13_26
*204 FILLER_0_13_30
*205 FILLER_0_13_32
*206 FILLER_0_13_62
*207 FILLER_0_13_86
*208 FILLER_0_13_90
*209 FILLER_0_14_107
*210 FILLER_0_14_111
*211 FILLER_0_14_151
*212 FILLER_0_14_2
*213 FILLER_0_14_34
*214 FILLER_0_14_37
*215 FILLER_0_14_53
*216 FILLER_0_14_63
*217 FILLER_0_15_113
*218 FILLER_0_15_148
*219 FILLER_0_15_2
*220 FILLER_0_15_34
*221 FILLER_0_15_38
*222 FILLER_0_15_40
*223 FILLER_0_15_72
*224 FILLER_0_15_76
*225 FILLER_0_16_104
*226 FILLER_0_16_108
*227 FILLER_0_16_12
*228 FILLER_0_16_144
*229 FILLER_0_16_148
*230 FILLER_0_16_28
*231 FILLER_0_16_32
*232 FILLER_0_16_36
*233 FILLER_0_16_70
*234 FILLER_0_16_8
*235 FILLER_0_16_86
*236 FILLER_0_16_94
*237 FILLER_0_1_119
*238 FILLER_0_1_135
*239 FILLER_0_1_139
*240 FILLER_0_1_146
*241 FILLER_0_1_150
*242 FILLER_0_1_18
*243 FILLER_0_1_2
*244 FILLER_0_1_22
*245 FILLER_0_1_61
*246 FILLER_0_1_69
*247 FILLER_0_1_72
*248 FILLER_0_1_76
*249 FILLER_0_1_78
*250 FILLER_0_1_90
*251 FILLER_0_1_92
*252 FILLER_0_2_104
*253 FILLER_0_2_107
*254 FILLER_0_2_148
*255 FILLER_0_2_18
*256 FILLER_0_2_2
*257 FILLER_0_2_26
*258 FILLER_0_2_30
*259 FILLER_0_2_32
*260 FILLER_0_2_37
*261 FILLER_0_3_150
*262 FILLER_0_3_2
*263 FILLER_0_3_36
*264 FILLER_0_3_49
*265 FILLER_0_3_6
*266 FILLER_0_3_64
*267 FILLER_0_3_66
*268 FILLER_0_3_69
*269 FILLER_0_3_72
*270 FILLER_0_3_84
*271 FILLER_0_4_18
*272 FILLER_0_4_2
*273 FILLER_0_4_34
*274 FILLER_0_4_37
*275 FILLER_0_4_56
*276 FILLER_0_4_58
*277 FILLER_0_4_98
*278 FILLER_0_5_123
*279 FILLER_0_5_139
*280 FILLER_0_5_17
*281 FILLER_0_5_2
*282 FILLER_0_5_34
*283 FILLER_0_5_38
*284 FILLER_0_5_4
*285 FILLER_0_5_40
*286 FILLER_0_5_61
*287 FILLER_0_5_69
*288 FILLER_0_5_72
*289 FILLER_0_5_80
*290 FILLER_0_6_104
*291 FILLER_0_6_121
*292 FILLER_0_6_28
*293 FILLER_0_6_32
*294 FILLER_0_6_34
*295 FILLER_0_6_37
*296 FILLER_0_6_41
*297 FILLER_0_6_49
*298 FILLER_0_6_51
*299 FILLER_0_6_60
*300 FILLER_0_6_68
*301 FILLER_0_6_71
*302 FILLER_0_6_73
*303 FILLER_0_6_8
*304 FILLER_0_6_96
*305 FILLER_0_7_150
*306 FILLER_0_7_2
*307 FILLER_0_7_69
*308 FILLER_0_7_77
*309 FILLER_0_8_103
*310 FILLER_0_8_107
*311 FILLER_0_8_120
*312 FILLER_0_8_150
*313 FILLER_0_8_2
*314 FILLER_0_8_37
*315 FILLER_0_9_137
*316 FILLER_0_9_139
*317 FILLER_0_9_147
*318 FILLER_0_9_151
*319 FILLER_0_9_2
*320 FILLER_0_9_20
*321 FILLER_0_9_28
*322 FILLER_0_9_32
*323 PHY_EDGE_ROW_0_Left_17
*324 PHY_EDGE_ROW_0_Right_0
*325 PHY_EDGE_ROW_10_Left_27
*326 PHY_EDGE_ROW_10_Right_10
*327 PHY_EDGE_ROW_11_Left_28
*328 PHY_EDGE_ROW_11_Right_11
*329 PHY_EDGE_ROW_12_Left_29
*330 PHY_EDGE_ROW_12_Right_12
*331 PHY_EDGE_ROW_13_Left_30
*332 PHY_EDGE_ROW_13_Right_13
*333 PHY_EDGE_ROW_14_Left_31
*334 PHY_EDGE_ROW_14_Right_14
*335 PHY_EDGE_ROW_15_Left_32
*336 PHY_EDGE_ROW_15_Right_15
*337 PHY_EDGE_ROW_16_Left_33
*338 PHY_EDGE_ROW_16_Right_16
*339 PHY_EDGE_ROW_1_Left_18
*340 PHY_EDGE_ROW_1_Right_1
*341 PHY_EDGE_ROW_2_Left_19
*342 PHY_EDGE_ROW_2_Right_2
*343 PHY_EDGE_ROW_3_Left_20
*344 PHY_EDGE_ROW_3_Right_3
*345 PHY_EDGE_ROW_4_Left_21
*346 PHY_EDGE_ROW_4_Right_4
*347 PHY_EDGE_ROW_5_Left_22
*348 PHY_EDGE_ROW_5_Right_5
*349 PHY_EDGE_ROW_6_Left_23
*350 PHY_EDGE_ROW_6_Right_6
*351 PHY_EDGE_ROW_7_Left_24
*352 PHY_EDGE_ROW_7_Right_7
*353 PHY_EDGE_ROW_8_Left_25
*354 PHY_EDGE_ROW_8_Right_8
*355 PHY_EDGE_ROW_9_Left_26
*356 PHY_EDGE_ROW_9_Right_9
*357 TAP_TAPCELL_ROW_0_34
*358 TAP_TAPCELL_ROW_0_35
*359 TAP_TAPCELL_ROW_0_36
*360 TAP_TAPCELL_ROW_0_37
*361 TAP_TAPCELL_ROW_10_56
*362 TAP_TAPCELL_ROW_10_57
*363 TAP_TAPCELL_ROW_11_58
*364 TAP_TAPCELL_ROW_11_59
*365 TAP_TAPCELL_ROW_12_60
*366 TAP_TAPCELL_ROW_12_61
*367 TAP_TAPCELL_ROW_13_62
*368 TAP_TAPCELL_ROW_13_63
*369 TAP_TAPCELL_ROW_14_64
*370 TAP_TAPCELL_ROW_14_65
*371 TAP_TAPCELL_ROW_15_66
*372 TAP_TAPCELL_ROW_15_67
*373 TAP_TAPCELL_ROW_16_68
*374 TAP_TAPCELL_ROW_16_69
*375 TAP_TAPCELL_ROW_16_70
*376 TAP_TAPCELL_ROW_16_71
*377 TAP_TAPCELL_ROW_1_38
*378 TAP_TAPCELL_ROW_1_39
*379 TAP_TAPCELL_ROW_2_40
*380 TAP_TAPCELL_ROW_2_41
*381 TAP_TAPCELL_ROW_3_42
*382 TAP_TAPCELL_ROW_3_43
*383 TAP_TAPCELL_ROW_4_44
*384 TAP_TAPCELL_ROW_4_45
*385 TAP_TAPCELL_ROW_5_46
*386 TAP_TAPCELL_ROW_5_47
*387 TAP_TAPCELL_ROW_6_48
*388 TAP_TAPCELL_ROW_6_49
*389 TAP_TAPCELL_ROW_7_50
*390 TAP_TAPCELL_ROW_7_51
*391 TAP_TAPCELL_ROW_8_52
*392 TAP_TAPCELL_ROW_8_53
*393 TAP_TAPCELL_ROW_9_54
*394 TAP_TAPCELL_ROW_9_55
*395 _095_
*396 _096_
*397 _097_
*398 _098_
*399 _099_
*400 _100_
*401 _101_
*402 _102_
*403 _103_
*404 _104_
*405 _105_
*406 _106_
*407 _107_
*408 _108_
*409 _109_
*410 _110_
*411 _111_
*412 _112_
*413 _113_
*414 _114_
*415 _115_
*416 _116_
*417 _117_
*418 _118_
*419 _119_
*420 _120_
*421 _121_
*422 _122_
*423 _123_
*424 _124_
*425 _125_
*426 _126_
*427 _127_
*428 _128_
*429 _129_
*430 _130_
*431 _131_
*432 _132_
*433 _133_
*434 _134_
*435 _135_
*436 _136_
*437 _137_
*438 _138_
*439 _139_
*440 _140_
*441 _141_
*442 _142_
*443 _143_
*444 _144_
*445 _145_
*446 _146_
*447 _147_
*448 _148_
*449 _149_
*450 _150_
*451 _151_
*452 _152_
*453 _153_
*454 _154_
*455 _155_
*456 _156_
*457 _157_
*458 _158_
*459 _159_
*460 _160_
*461 _161_
*462 _162_
*463 _163_
*464 _164_
*465 _165_
*466 _166_
*467 _167_
*468 _168_
*469 _169_
*470 _170_
*471 _171_
*472 _172_
*473 _173_
*474 _174_
*475 _175_
*476 _176_
*477 _177_
*478 _178_
*479 _179_
*480 _180_
*481 _181_
*482 _182_
*483 _183_
*484 _184_
*485 _185_
*486 _186_
*487 _187_
*488 _188_
*489 _189_
*490 _190_
*491 _191_
*492 _192_
*493 _193_
*494 _194_
*495 _195_
*496 _196_
*497 _197_
*498 _198_
*499 _199_
*500 _200_
*501 _201_
*502 _202_
*503 _203_
*504 _204_
*505 _205_
*506 _206_
*507 _207_
*508 _208_
*509 _209_
*510 _210_
*511 clkbuf_0_clk
*512 clkbuf_1_0__f_clk
*513 clkbuf_1_1__f_clk
*514 input1
*515 input2
*516 input3
*517 input4
*518 input5
*519 output10
*520 output11
*521 output12
*522 output13
*523 output6
*524 output7
*525 output8
*526 output9

*PORTS
clk I
reset I
rle1__input_r[0] I
rle1__input_r[1] I
rle1__input_r_rdy O
rle1__input_r_vld I
rle1__output_s[0] O
rle1__output_s[1] O
rle1__output_s[2] O
rle1__output_s[3] O
rle1__output_s[4] O
rle1__output_s[5] O
rle1__output_s_rdy I
rle1__output_s_vld O

*D_NET *1 0.00839061
*CONN
*P clk I
*I *511:I I *D gf180mcu_fd_sc_mcu7t5v0__clkbuf_16
*I *155:I I *D gf180mcu_fd_sc_mcu7t5v0__antenna
*CAP
1 clk 0.0023431
2 *511:I 0.000551224
3 *155:I 0
4 *1:9 0.00289433
5 *511:I *418:I 0
6 *511:I *431:A1 1.86887e-06
7 *511:I *435:A2 1.88134e-05
8 *511:I *442:C 6.75654e-05
9 *511:I *452:B2 4.93607e-05
10 *511:I *453:A1 1.17725e-05
11 *511:I *456:A2 0.000121064
12 *511:I *496:D 0.000112099
13 *511:I *93:44 0.000479913
14 *511:I *101:29 2.44007e-05
15 *1:9 *430:A1 5.54383e-05
16 *1:9 *430:A2 0.00018314
17 *1:9 *496:D 0.000344846
18 *1:9 *496:CLK 0.000146212
19 *1:9 *498:CLK 0
20 *1:9 *94:8 9.91262e-05
21 *1:9 *101:29 4.71078e-05
22 *1:9 *113:144 0.000242713
23 *1:9 *113:153 0.000148459
24 *1:9 *139:14 0.000448058
*RES
1 clk *1:9 23.355 
2 *1:9 *155:I 9 
3 *1:9 *511:I 13.14 
*END

*D_NET *2 0.00311304
*CONN
*P reset I
*I *156:I I *D gf180mcu_fd_sc_mcu7t5v0__antenna
*I *514:I I *D gf180mcu_fd_sc_mcu7t5v0__clkbuf_1
*CAP
1 reset 0.00124322
2 *156:I 6.78776e-05
3 *514:I 5.68532e-05
4 *2:13 0.00136795
5 *156:I rle1__output_s[4] 3.16214e-05
6 *156:I *520:I 0.000312562
7 *514:I *520:I 2.89427e-06
8 *2:13 rle1__output_s[4] 0
9 *2:13 rle1__output_s[5] 0
10 *2:13 *520:I 3.00594e-05
*RES
1 reset *2:13 18.045 
2 *2:13 *514:I 4.77 
3 *2:13 *156:I 14.49 
*END

*D_NET *3 0.00154593
*CONN
*P rle1__input_r[0] I
*I *157:I I *D gf180mcu_fd_sc_mcu7t5v0__antenna
*I *515:I I *D gf180mcu_fd_sc_mcu7t5v0__clkbuf_1
*CAP
1 rle1__input_r[0] 0.000212486
2 *157:I 0.000301535
3 *515:I 0.000142356
4 *3:5 0.000656377
5 *157:I *461:I 0.000223407
6 *515:I *461:I 9.76481e-06
*RES
1 rle1__input_r[0] *3:5 1.665 
2 *3:5 *515:I 9.81 
3 *3:5 *157:I 10.98 
*END

*D_NET *4 0.00146833
*CONN
*P rle1__input_r[1] I
*I *158:I I *D gf180mcu_fd_sc_mcu7t5v0__antenna
*I *516:I I *D gf180mcu_fd_sc_mcu7t5v0__clkbuf_1
*CAP
1 rle1__input_r[1] 0.000504685
2 *158:I 0.000129949
3 *516:I 4.64589e-05
4 *4:9 0.000681093
5 *158:I *464:I 0.000106141
*RES
1 rle1__input_r[1] *4:9 8.055 
2 *4:9 *516:I 4.77 
3 *4:9 *158:I 14.85 
*END

*D_NET *5 0.00108144
*CONN
*P rle1__input_r_rdy O
*I *523:Z O *D gf180mcu_fd_sc_mcu7t5v0__buf_8
*CAP
1 rle1__input_r_rdy 0.000540718
2 *523:Z 0.000540718
*RES
1 *523:Z rle1__input_r_rdy 12.915 
*END

*D_NET *6 0.00131743
*CONN
*P rle1__input_r_vld I
*I *159:I I *D gf180mcu_fd_sc_mcu7t5v0__antenna
*I *517:I I *D gf180mcu_fd_sc_mcu7t5v0__clkbuf_1
*CAP
1 rle1__input_r_vld 0.000388718
2 *159:I 0.00014431
3 *517:I 0
4 *6:9 0.000533028
5 *159:I *113:48 8.52804e-05
6 *6:9 *113:48 3.83591e-05
7 *6:9 *122:6 0.000127736
*RES
1 rle1__input_r_vld *6:9 7.695 
2 *6:9 *517:I 4.5 
3 *6:9 *159:I 5.67 
*END

*D_NET *7 0.00301179
*CONN
*P rle1__output_s[0] O
*I *524:Z O *D gf180mcu_fd_sc_mcu7t5v0__buf_8
*CAP
1 rle1__output_s[0] 0.00148867
2 *524:Z 0.00148867
3 rle1__output_s[0] rle1__output_s[1] 1.07374e-05
4 rle1__output_s[0] *510:D 0
5 rle1__output_s[0] *510:CLK 0
6 rle1__output_s[0] *525:I 2.37143e-05
7 rle1__output_s[0] *55:12 0
8 rle1__output_s[0] *114:57 0
9 rle1__output_s[0] *125:16 0
*RES
1 *524:Z rle1__output_s[0] 17.955 
*END

*D_NET *8 0.00377033
*CONN
*P rle1__output_s[1] O
*I *525:Z O *D gf180mcu_fd_sc_mcu7t5v0__buf_8
*CAP
1 rle1__output_s[1] 0.00139663
2 *525:Z 0.00139663
3 rle1__output_s[1] *475:A2 0
4 rle1__output_s[1] *479:A1 0
5 rle1__output_s[1] *479:A2 0.000567799
6 rle1__output_s[1] *489:A2 5.79978e-05
7 rle1__output_s[1] *525:I 0
8 rle1__output_s[1] *84:62 2.39457e-05
9 rle1__output_s[1] *90:50 6.31267e-05
10 rle1__output_s[1] *114:53 2.26729e-05
11 rle1__output_s[1] *114:55 0.00016761
12 rle1__output_s[1] *114:57 6.317e-05
13 rle1__output_s[0] rle1__output_s[1] 1.07374e-05
*RES
1 *525:Z rle1__output_s[1] 18.855 
*END

*D_NET *9 0.00297506
*CONN
*P rle1__output_s[2] O
*I *526:Z O *D gf180mcu_fd_sc_mcu7t5v0__buf_8
*CAP
1 rle1__output_s[2] 0.000942682
2 *526:Z 0.000942682
3 rle1__output_s[2] *478:A1 0.000496785
4 rle1__output_s[2] *478:A2 9.84908e-05
5 rle1__output_s[2] *482:B 0
6 rle1__output_s[2] *486:B 0.000304498
7 rle1__output_s[2] *488:A1 7.46205e-05
8 rle1__output_s[2] *114:15 9.90362e-06
9 rle1__output_s[2] *114:22 4.5615e-05
10 rle1__output_s[2] *127:10 5.97802e-05
*RES
1 *526:Z rle1__output_s[2] 16.335 
*END

*D_NET *10 0.00189912
*CONN
*P rle1__output_s[3] O
*I *519:Z O *D gf180mcu_fd_sc_mcu7t5v0__buf_8
*CAP
1 rle1__output_s[3] 0.000754579
2 *519:Z 0.000754579
3 rle1__output_s[3] *484:B 0
4 rle1__output_s[3] *507:D 4.21513e-05
5 rle1__output_s[3] *508:D 0
6 rle1__output_s[3] *519:I 0.000259494
7 rle1__output_s[3] *57:28 2.18436e-05
8 rle1__output_s[3] *115:12 6.6478e-05
*RES
1 *519:Z rle1__output_s[3] 14.625 
*END

*D_NET *11 0.00264234
*CONN
*P rle1__output_s[4] O
*I *520:Z O *D gf180mcu_fd_sc_mcu7t5v0__buf_8
*CAP
1 rle1__output_s[4] 0.000861875
2 *520:Z 0.000861875
3 rle1__output_s[4] *497:CLK 1.87555e-05
4 rle1__output_s[4] *520:I 0.000798633
5 rle1__output_s[4] *521:I 6.95792e-05
6 *156:I rle1__output_s[4] 3.16214e-05
7 *2:13 rle1__output_s[4] 0
*RES
1 *520:Z rle1__output_s[4] 16.245 
*END

*D_NET *12 0.00279558
*CONN
*P rle1__output_s[5] O
*I *521:Z O *D gf180mcu_fd_sc_mcu7t5v0__buf_8
*CAP
1 rle1__output_s[5] 0.00139779
2 *521:Z 0.00139779
3 rle1__output_s[5] *115:12 0
4 *2:13 rle1__output_s[5] 0
*RES
1 *521:Z rle1__output_s[5] 19.395 
*END

*D_NET *13 0.00201665
*CONN
*P rle1__output_s_rdy I
*I *518:I I *D gf180mcu_fd_sc_mcu7t5v0__clkbuf_1
*I *160:I I *D gf180mcu_fd_sc_mcu7t5v0__antenna
*CAP
1 rle1__output_s_rdy 0.000693504
2 *518:I 3.83871e-05
3 *160:I 0.000263006
4 *13:9 0.000994897
5 *160:I *400:I 1.61174e-05
6 *518:I *400:I 1.07374e-05
*RES
1 rle1__output_s_rdy *13:9 9.675 
2 *13:9 *160:I 5.94 
3 *13:9 *518:I 4.95 
*END

*D_NET *14 0.00426093
*CONN
*P rle1__output_s_vld O
*I *522:Z O *D gf180mcu_fd_sc_mcu7t5v0__buf_8
*CAP
1 rle1__output_s_vld 0.00113501
2 *522:Z 0.00113501
3 rle1__output_s_vld *470:A2 5.24971e-05
4 rle1__output_s_vld *490:A1 0
5 rle1__output_s_vld *71:10 0.00041335
6 rle1__output_s_vld *119:10 0.000913259
7 rle1__output_s_vld *119:12 0.000611791
*RES
1 *522:Z rle1__output_s_vld 20.205 
*END

*D_NET *17 0.001174
*CONN
*I *491:D I *D gf180mcu_fd_sc_mcu7t5v0__dffq_1
*I *414:ZN O *D gf180mcu_fd_sc_mcu7t5v0__aoi211_1
*CAP
1 *491:D 0.000385845
2 *414:ZN 0.000385845
3 *491:D *414:A1 0.000280914
4 *491:D *414:B 0.000121393
5 *491:D *84:10 0
*RES
1 *414:ZN *491:D 20.88 
*END

*D_NET *18 0.00119103
*CONN
*I *492:D I *D gf180mcu_fd_sc_mcu7t5v0__dffq_1
*I *417:ZN O *D gf180mcu_fd_sc_mcu7t5v0__nor2_1
*CAP
1 *492:D 0.000340893
2 *417:ZN 0.000340893
3 *492:D *141:I 0.000439038
4 *492:D *146:I 6.79995e-06
5 *492:D *417:A1 0
6 *492:D *459:A1 0
7 *492:D *492:CLK 3.38999e-05
8 *492:D *113:37 2.95085e-05
*RES
1 *417:ZN *492:D 20.88 
*END

*D_NET *19 0.000678672
*CONN
*I *493:D I *D gf180mcu_fd_sc_mcu7t5v0__dffq_1
*I *420:ZN O *D gf180mcu_fd_sc_mcu7t5v0__nor2_1
*CAP
1 *493:D 0.000326
2 *420:ZN 0.000326
3 *493:D *153:I 0
4 *493:D *420:A1 0
5 *493:D *493:CLK 1.3448e-06
6 *493:D *494:D 2.53274e-05
*RES
1 *420:ZN *493:D 11.25 
*END

*D_NET *20 0.00192411
*CONN
*I *494:D I *D gf180mcu_fd_sc_mcu7t5v0__dffq_1
*I *424:ZN O *D gf180mcu_fd_sc_mcu7t5v0__aoi21_1
*CAP
1 *494:D 0.000326311
2 *424:ZN 0.000326311
3 *494:D *419:A2 0
4 *494:D *420:A1 0
5 *494:D *424:A1 0.000806552
6 *494:D *468:B 0.000300237
7 *494:D *90:16 0.000139375
8 *494:D *113:121 0
9 *493:D *494:D 2.53274e-05
*RES
1 *424:ZN *494:D 12.69 
*END

*D_NET *21 0.00464216
*CONN
*I *495:D I *D gf180mcu_fd_sc_mcu7t5v0__dffq_1
*I *435:ZN O *D gf180mcu_fd_sc_mcu7t5v0__aoi211_1
*CAP
1 *495:D 0.000933916
2 *435:ZN 0.000933916
3 *495:D *396:A4 0.000484297
4 *495:D *432:I 4.49157e-06
5 *495:D *446:A2 0.000286386
6 *495:D *446:A3 9.84908e-05
7 *495:D *449:A1 0.000363139
8 *495:D *450:A1 3.54587e-05
9 *495:D *450:C 0.000305798
10 *495:D *452:B2 9.30128e-05
11 *495:D *456:A2 0.000153114
12 *495:D *43:20 8.68398e-06
13 *495:D *113:140 0
14 *495:D *129:17 0.000479818
15 *495:D *129:34 0.000385445
16 *495:D *130:10 4.59568e-05
17 *495:D *130:19 3.02401e-05
*RES
1 *435:ZN *495:D 27.36 
*END

*D_NET *22 0.00333117
*CONN
*I *496:D I *D gf180mcu_fd_sc_mcu7t5v0__dffq_1
*I *442:ZN O *D gf180mcu_fd_sc_mcu7t5v0__aoi211_1
*CAP
1 *496:D 0.00111579
2 *442:ZN 0.00111579
3 *496:D *430:A2 0.000208137
4 *496:D *435:A2 4.80547e-05
5 *496:D *442:A2 6.09495e-05
6 *496:D *464:I 0
7 *496:D *496:CLK 0.000241058
8 *496:D *106:20 0
9 *496:D *113:155 0
10 *496:D *139:14 8.44434e-05
11 *511:I *496:D 0.000112099
12 *1:9 *496:D 0.000344846
*RES
1 *442:ZN *496:D 27.63 
*END

*D_NET *23 0.00140294
*CONN
*I *497:D I *D gf180mcu_fd_sc_mcu7t5v0__dffq_1
*I *452:ZN O *D gf180mcu_fd_sc_mcu7t5v0__aoi221_1
*CAP
1 *497:D 0.000466469
2 *452:ZN 0.000466469
3 *497:D *454:A2 0
4 *497:D *454:A3 0.000213684
5 *497:D *454:A4 1.33994e-05
6 *497:D *456:B1 0.00014587
7 *497:D *484:A1 0
8 *497:D *498:D 0
9 *497:D *107:8 6.26074e-05
10 *497:D *107:14 3.44417e-05
*RES
1 *452:ZN *497:D 21.87 
*END

*D_NET *24 0.00503485
*CONN
*I *498:D I *D gf180mcu_fd_sc_mcu7t5v0__dffq_1
*I *456:ZN O *D gf180mcu_fd_sc_mcu7t5v0__aoi221_1
*CAP
1 *498:D 0.00135635
2 *456:ZN 0.00135635
3 *498:D *443:I 3.65836e-05
4 *498:D *450:A2 0.000462347
5 *498:D *450:C 0
6 *498:D *452:B1 0.000213957
7 *498:D *452:B2 0.000212091
8 *498:D *456:A2 0.000158798
9 *498:D *456:B1 0.000102943
10 *498:D *456:C 0.000162554
11 *498:D *98:6 2.26729e-05
12 *498:D *107:26 0
13 *498:D *113:140 4.217e-05
14 *498:D *113:197 0.000136032
15 *498:D *130:19 0
16 *498:D *131:16 0.000646591
17 *498:D *132:10 8.39809e-05
18 *498:D *132:29 4.14395e-05
19 *497:D *498:D 0
*RES
1 *456:ZN *498:D 30.51 
*END

*D_NET *25 0.0024785
*CONN
*I *499:D I *D gf180mcu_fd_sc_mcu7t5v0__dffq_1
*I *458:ZN O *D gf180mcu_fd_sc_mcu7t5v0__aoi211_1
*CAP
1 *499:D 0.000637657
2 *458:ZN 0.000637657
3 *499:D *425:A2 0.000203733
4 *499:D *471:A2 0.00014903
5 *499:D *52:16 8.64138e-05
6 *499:D *70:25 2.31089e-05
7 *499:D *70:36 1.07374e-05
8 *499:D *90:16 1.07374e-05
9 *499:D *90:50 0
10 *499:D *92:10 0.000719421
*RES
1 *458:ZN *499:D 15.66 
*END

*D_NET *26 0.00223979
*CONN
*I *500:D I *D gf180mcu_fd_sc_mcu7t5v0__dffq_1
*I *460:ZN O *D gf180mcu_fd_sc_mcu7t5v0__nor2_1
*CAP
1 *500:D 0.000340141
2 *460:ZN 0.000340141
3 *500:D *401:A2 0.00130784
4 *500:D *73:16 0.000218382
5 *500:D *140:10 3.32853e-05
*RES
1 *460:ZN *500:D 22.32 
*END

*D_NET *27 0.000803978
*CONN
*I *501:D I *D gf180mcu_fd_sc_mcu7t5v0__dffq_1
*I *463:ZN O *D gf180mcu_fd_sc_mcu7t5v0__aoi211_1
*CAP
1 *501:D 5.50454e-05
2 *463:ZN 5.50454e-05
3 *501:D *463:A1 0.000192205
4 *501:D *463:B 2.65444e-06
5 *501:D *463:C 0.000444513
6 *501:D *465:A2 1.79237e-05
7 *501:D *466:A2 2.14748e-05
8 *501:D *124:25 1.51153e-05
*RES
1 *463:ZN *501:D 10.53 
*END

*D_NET *28 0.000882222
*CONN
*I *502:D I *D gf180mcu_fd_sc_mcu7t5v0__dffq_1
*I *466:ZN O *D gf180mcu_fd_sc_mcu7t5v0__aoi211_1
*CAP
1 *502:D 3.99504e-05
2 *466:ZN 3.99504e-05
3 *502:D *463:A1 0.000208323
4 *502:D *463:C 0.000444513
5 *502:D *466:A1 0.000106536
6 *502:D *106:20 4.29496e-05
*RES
1 *466:ZN *502:D 10.53 
*END

*D_NET *29 0.00198809
*CONN
*I *503:D I *D gf180mcu_fd_sc_mcu7t5v0__dffq_1
*I *468:ZN O *D gf180mcu_fd_sc_mcu7t5v0__aoi21_1
*CAP
1 *503:D 0.00057252
2 *468:ZN 0.00057252
3 *503:D *404:A1 7.55765e-06
4 *503:D *404:A2 3.02225e-05
5 *503:D *462:B 0.000102753
6 *503:D *468:A2 3.01487e-05
7 *503:D *523:I 0.000215949
8 *503:D *74:12 0.000378497
9 *503:D *74:16 4.99508e-05
10 *503:D *113:37 0
11 *503:D *113:41 0
12 *503:D *113:48 0
13 *503:D *134:8 2.7968e-05
*RES
1 *468:ZN *503:D 22.77 
*END

*D_NET *30 0.00115321
*CONN
*I *504:D I *D gf180mcu_fd_sc_mcu7t5v0__dffq_1
*I *473:ZN O *D gf180mcu_fd_sc_mcu7t5v0__nor2_1
*CAP
1 *504:D 0.000264648
2 *473:ZN 0.000264648
3 *504:D *55:12 0.000465899
4 *504:D *83:16 7.93835e-05
5 *504:D *114:55 7.39756e-05
6 *504:D *114:57 4.6613e-06
7 *504:D *114:74 0
*RES
1 *473:ZN *504:D 20.97 
*END

*D_NET *31 0.000445185
*CONN
*I *505:D I *D gf180mcu_fd_sc_mcu7t5v0__dffq_1
*I *479:ZN O *D gf180mcu_fd_sc_mcu7t5v0__aoi21_1
*CAP
1 *505:D 0.000170438
2 *479:ZN 0.000170438
3 *505:D *479:A2 7.19579e-05
4 *505:D *479:B 3.23513e-05
*RES
1 *479:ZN *505:D 10.26 
*END

*D_NET *32 0.00149108
*CONN
*I *506:D I *D gf180mcu_fd_sc_mcu7t5v0__dffq_1
*I *482:ZN O *D gf180mcu_fd_sc_mcu7t5v0__aoi21_1
*CAP
1 *506:D 0.000313245
2 *482:ZN 0.000313245
3 *506:D *478:A1 0.000365454
4 *506:D *482:A2 0.000326425
5 *506:D *486:B 3.91078e-05
6 *506:D *526:I 0.000129267
7 *506:D *57:28 0
8 *506:D *127:10 4.34199e-06
*RES
1 *482:ZN *506:D 21.42 
*END

*D_NET *33 0.00202228
*CONN
*I *507:D I *D gf180mcu_fd_sc_mcu7t5v0__dffq_1
*I *484:ZN O *D gf180mcu_fd_sc_mcu7t5v0__aoi211_1
*CAP
1 *507:D 0.000264732
2 *484:ZN 0.000264732
3 *507:D *484:C 0.000266542
4 *507:D *508:D 0.000327515
5 *507:D *58:16 3.89985e-05
6 *507:D *115:12 0.000817609
7 rle1__output_s[3] *507:D 4.21513e-05
*RES
1 *484:ZN *507:D 22.14 
*END

*D_NET *34 0.00316197
*CONN
*I *508:D I *D gf180mcu_fd_sc_mcu7t5v0__dffq_1
*I *486:ZN O *D gf180mcu_fd_sc_mcu7t5v0__aoi211_1
*CAP
1 *508:D 0.000512245
2 *486:ZN 0.000512245
3 *508:D *484:B 0.000601531
4 *508:D *484:C 1.51153e-05
5 *508:D *57:20 1.58709e-05
6 *508:D *58:16 2.63554e-05
7 *508:D *58:34 0.000357791
8 *508:D *114:15 6.91924e-05
9 *508:D *114:22 0.000362493
10 *508:D *114:31 0.000361611
11 rle1__output_s[3] *508:D 0
12 *507:D *508:D 0.000327515
*RES
1 *486:ZN *508:D 25.11 
*END

*D_NET *35 0.00146227
*CONN
*I *509:D I *D gf180mcu_fd_sc_mcu7t5v0__dffq_1
*I *489:ZN O *D gf180mcu_fd_sc_mcu7t5v0__aoi21_1
*CAP
1 *509:D 0.00042918
2 *489:ZN 0.00042918
3 *509:D *480:A2 0.000119182
4 *509:D *482:B 0.000114714
5 *509:D *487:A1 0.000294421
6 *509:D *488:A2 0
7 *509:D *489:A2 7.55961e-05
8 *509:D *90:50 0
*RES
1 *489:ZN *509:D 21.6 
*END

*D_NET *36 0.000803315
*CONN
*I *510:D I *D gf180mcu_fd_sc_mcu7t5v0__dffq_2
*I *490:ZN O *D gf180mcu_fd_sc_mcu7t5v0__aoi21_1
*CAP
1 *510:D 0.000352824
2 *490:ZN 0.000352824
3 *510:D *400:I 0
4 *510:D *490:A1 9.7667e-05
5 rle1__output_s[0] *510:D 0
*RES
1 *490:ZN *510:D 11.07 
*END

*D_NET *37 0.0040831
*CONN
*I *450:A2 I *D gf180mcu_fd_sc_mcu7t5v0__oai211_1
*I *448:Z O *D gf180mcu_fd_sc_mcu7t5v0__xor2_1
*CAP
1 *450:A2 0.000933468
2 *448:Z 0.000933468
3 *450:A2 *399:A1 0.000350117
4 *450:A2 *432:I 0.000161561
5 *450:A2 *450:A1 0.000178771
6 *450:A2 *452:B2 5.62314e-06
7 *450:A2 *456:A1 0.000145218
8 *450:A2 *456:A2 0.000158798
9 *450:A2 *457:A1 0.000274201
10 *450:A2 *458:A2 2.04588e-05
11 *450:A2 *486:A1 0
12 *450:A2 *513:I 0.000121356
13 *450:A2 *67:22 0.000161873
14 *450:A2 *93:29 0
15 *450:A2 *98:12 7.96333e-06
16 *450:A2 *99:8 1.71324e-05
17 *450:A2 *99:21 0.000107798
18 *450:A2 *112:14 4.29496e-05
19 *498:D *450:A2 0.000462347
*RES
1 *448:Z *450:A2 18.54 
*END

*D_NET *38 0.00210099
*CONN
*I *450:B I *D gf180mcu_fd_sc_mcu7t5v0__oai211_1
*I *449:ZN O *D gf180mcu_fd_sc_mcu7t5v0__nand3_1
*CAP
1 *450:B 0.000560906
2 *449:ZN 0.000560906
3 *450:B *151:I 0
4 *450:B *396:A1 0.000116341
5 *450:B *396:A3 2.77129e-05
6 *450:B *398:A4 0.000111442
7 *450:B *449:A1 1.69528e-05
8 *450:B *43:20 0.00011451
9 *450:B *107:26 0.000390584
10 *450:B *130:19 0.000164219
11 *450:B *131:16 0
12 *450:B *132:10 2.08284e-05
13 *450:B *132:29 1.65821e-05
*RES
1 *449:ZN *450:B 22.32 
*END

*D_NET *39 0.00107262
*CONN
*I *452:B1 I *D gf180mcu_fd_sc_mcu7t5v0__aoi221_1
*I *450:ZN O *D gf180mcu_fd_sc_mcu7t5v0__oai211_1
*CAP
1 *452:B1 0.000266199
2 *450:ZN 0.000266199
3 *452:B1 *456:B1 9.6719e-05
4 *452:B1 *456:C 3.7492e-05
5 *452:B1 *43:20 0.000101207
6 *452:B1 *107:26 9.08505e-05
7 *498:D *452:B1 0.000213957
*RES
1 *450:ZN *452:B1 29.16 
*END

*D_NET *40 0.00602427
*CONN
*I *486:C I *D gf180mcu_fd_sc_mcu7t5v0__aoi211_1
*I *484:C I *D gf180mcu_fd_sc_mcu7t5v0__aoi211_1
*I *452:C I *D gf180mcu_fd_sc_mcu7t5v0__aoi221_1
*I *456:C I *D gf180mcu_fd_sc_mcu7t5v0__aoi221_1
*I *451:Z O *D gf180mcu_fd_sc_mcu7t5v0__clkbuf_1
*CAP
1 *486:C 0.000267251
2 *484:C 0.000396174
3 *452:C 0
4 *456:C 0.000251664
5 *451:Z 0
6 *40:18 0.000714699
7 *40:14 0.000964156
8 *40:6 0.000372198
9 *456:C *439:I 2.1151e-05
10 *456:C *452:B2 0.00015547
11 *456:C *43:20 9.3099e-06
12 *484:C *484:A1 0
13 *484:C *484:A2 5.36351e-05
14 *484:C *497:CLK 1.86887e-06
15 *484:C *58:16 3.49407e-05
16 *484:C *114:31 1.68677e-06
17 *484:C *115:12 8.08729e-05
18 *486:C *482:A2 4.02123e-05
19 *486:C *57:20 0.000291847
20 *486:C *57:28 0.000101615
21 *486:C *58:34 0.000690018
22 *486:C *115:12 7.07722e-05
23 *40:14 *412:I 0.000169524
24 *40:14 *482:A2 0.00041693
25 *40:14 *58:16 6.68593e-05
26 *40:14 *115:12 5.62747e-05
27 *40:18 *439:I 3.71188e-06
28 *40:18 *452:A2 0.000183067
29 *40:18 *454:A2 0
30 *40:18 *454:A3 0.000126655
31 *40:18 *484:A1 0
32 *452:B1 *456:C 3.7492e-05
33 *498:D *456:C 0.000162554
34 *507:D *484:C 0.000266542
35 *508:D *484:C 1.51153e-05
*RES
1 *451:Z *40:6 9 
2 *40:6 *40:14 10.62 
3 *40:14 *40:18 3.42 
4 *40:18 *456:C 10.8 
5 *40:18 *452:C 9 
6 *40:14 *484:C 12.24 
7 *40:6 *486:C 12.15 
*END

*D_NET *41 0.00369439
*CONN
*I *456:A2 I *D gf180mcu_fd_sc_mcu7t5v0__aoi221_1
*I *453:ZN O *D gf180mcu_fd_sc_mcu7t5v0__nand2_1
*CAP
1 *456:A2 0.000468111
2 *453:ZN 0.000468111
3 *456:A2 *429:A1 0.000369048
4 *456:A2 *432:I 1.26486e-05
5 *456:A2 *435:C 0.000323425
6 *456:A2 *439:I 0.000488215
7 *456:A2 *442:C 0.000150744
8 *456:A2 *452:B2 0.000212803
9 *456:A2 *456:A1 0.000161845
10 *456:A2 *67:22 8.22607e-05
11 *456:A2 *90:16 0.000136228
12 *456:A2 *93:44 0.000189364
13 *456:A2 *128:25 3.98088e-05
14 *450:A2 *456:A2 0.000158798
15 *495:D *456:A2 0.000153114
16 *498:D *456:A2 0.000158798
17 *511:I *456:A2 0.000121064
*RES
1 *453:ZN *456:A2 33.75 
*END

*D_NET *42 0.00153087
*CONN
*I *456:B1 I *D gf180mcu_fd_sc_mcu7t5v0__aoi221_1
*I *454:ZN O *D gf180mcu_fd_sc_mcu7t5v0__nand4_1
*CAP
1 *456:B1 0.000305058
2 *454:ZN 0.000305058
3 *456:B1 *452:B2 0.000498052
4 *456:B1 *454:A3 6.14474e-05
5 *456:B1 *454:A4 5.30888e-06
6 *456:B1 *486:A1 1.0415e-05
7 *456:B1 *92:30 0
8 *452:B1 *456:B1 9.6719e-05
9 *497:D *456:B1 0.00014587
10 *498:D *456:B1 0.000102943
*RES
1 *454:ZN *456:B1 12.33 
*END

*D_NET *43 0.0058296
*CONN
*I *456:B2 I *D gf180mcu_fd_sc_mcu7t5v0__aoi221_1
*I *486:A1 I *D gf180mcu_fd_sc_mcu7t5v0__aoi211_1
*I *455:ZN O *D gf180mcu_fd_sc_mcu7t5v0__clkinv_1
*CAP
1 *456:B2 0
2 *486:A1 0.000759611
3 *455:ZN 0.00118863
4 *43:20 0.00194824
5 *486:A1 *435:C 0
6 *486:A1 *442:B 0.000208146
7 *486:A1 *452:B2 4.48218e-05
8 *486:A1 *456:A1 0.00030751
9 *486:A1 *478:A1 0.00011993
10 *486:A1 *486:A2 1.62765e-05
11 *486:A1 *57:20 0.000222818
12 *486:A1 *82:8 1.49663e-05
13 *486:A1 *82:10 2.65444e-06
14 *486:A1 *92:30 1.38005e-05
15 *486:A1 *98:12 0.000232188
16 *486:A1 *99:21 8.51149e-05
17 *486:A1 *99:23 9.04462e-05
18 *486:A1 *106:8 0.000126454
19 *486:A1 *106:12 1.48237e-05
20 *43:20 *396:A3 0
21 *43:20 *432:I 0
22 *43:20 *439:I 0.000155674
23 *43:20 *449:A1 1.18477e-05
24 *43:20 *67:22 0
25 *43:20 *94:34 0
26 *43:20 *107:26 2.15257e-05
27 *450:A2 *486:A1 0
28 *450:B *43:20 0.00011451
29 *452:B1 *43:20 0.000101207
30 *456:B1 *486:A1 1.0415e-05
31 *456:C *43:20 9.3099e-06
32 *495:D *43:20 8.68398e-06
*RES
1 *455:ZN *43:20 27.72 
2 *43:20 *486:A1 20.25 
3 *43:20 *456:B2 4.5 
*END

*D_NET *44 0.0024921
*CONN
*I *458:B I *D gf180mcu_fd_sc_mcu7t5v0__aoi211_1
*I *457:ZN O *D gf180mcu_fd_sc_mcu7t5v0__nor2_1
*CAP
1 *458:B 0.000282002
2 *457:ZN 0.000282002
3 *458:B *399:B 0
4 *458:B *433:I 7.96333e-06
5 *458:B *435:C 0.0001434
6 *458:B *458:A2 1.64369e-05
7 *458:B *92:10 0.000479902
8 *458:B *93:12 0.000349779
9 *458:B *93:29 6.1299e-06
10 *458:B *106:12 0.000630052
11 *458:B *112:14 0.000294431
*RES
1 *457:ZN *458:B 21.96 
*END

*D_NET *45 0.00261033
*CONN
*I *460:A2 I *D gf180mcu_fd_sc_mcu7t5v0__nor2_1
*I *459:ZN O *D gf180mcu_fd_sc_mcu7t5v0__nor3_1
*CAP
1 *460:A2 0.000396381
2 *459:ZN 0.000396381
3 *460:A2 *401:A1 0.000444513
4 *460:A2 *401:A2 0.00012909
5 *460:A2 *459:A2 2.19007e-05
6 *460:A2 *459:A3 0.000108767
7 *460:A2 *73:16 0.0011133
*RES
1 *459:ZN *460:A2 23.13 
*END

*D_NET *46 0.0030977
*CONN
*I *463:A1 I *D gf180mcu_fd_sc_mcu7t5v0__aoi211_1
*I *461:ZN O *D gf180mcu_fd_sc_mcu7t5v0__clkinv_1
*CAP
1 *463:A1 0.000320158
2 *461:ZN 0.000320158
3 *463:A1 *461:I 7.96333e-06
4 *463:A1 *463:C 0.000164306
5 *463:A1 *466:A1 0.000409001
6 *463:A1 *466:A2 0.00147559
7 *501:D *463:A1 0.000192205
8 *502:D *463:A1 0.000208323
*RES
1 *461:ZN *463:A1 14.94 
*END

*D_NET *47 0.00096281
*CONN
*I *463:B I *D gf180mcu_fd_sc_mcu7t5v0__aoi211_1
*I *462:ZN O *D gf180mcu_fd_sc_mcu7t5v0__aoi21_1
*CAP
1 *463:B 0.00023761
2 *462:ZN 0.00023761
3 *463:B *463:C 0.000110564
4 *463:B *465:A1 6.31911e-05