*SPEF "ieee 1481-1999"
*DESIGN "rle1_dec_wrap"
*DATE "11:11:11 Fri 11 11, 1111"
*VENDOR "OpenRCX"
*PROGRAM "Parallel Extraction"
*VERSION "1.0"
*DESIGN_FLOW "NAME_SCOPE LOCAL" "PIN_CAP NONE"
*DIVIDER /
*DELIMITER :
*BUS_DELIMITER []
*T_UNIT 1 NS
*C_UNIT 1 PF
*R_UNIT 1 OHM
*L_UNIT 1 HENRY

*NAME_MAP
*1 clk
*2 reset
*3 rle1__input_r[0]
*4 rle1__input_r[1]
*5 rle1__input_r[2]
*6 rle1__input_r[3]
*7 rle1__input_r[4]
*8 rle1__input_r[5]
*9 rle1__input_r_rdy
*10 rle1__input_r_vld
*11 rle1__output_s[0]
*12 rle1__output_s[1]
*13 rle1__output_s_rdy
*14 rle1__output_s_vld
*17 _000_
*18 _001_
*19 _002_
*20 _003_
*21 _004_
*22 _005_
*23 _006_
*24 _007_
*25 _008_
*26 _009_
*27 _010_
*28 _011_
*29 _012_
*30 _013_
*31 _014_
*32 _015_
*33 _016_
*34 _017_
*35 _018_
*36 _019_
*37 _020_
*38 _021_
*39 _022_
*40 _023_
*41 _024_
*42 _025_
*43 _026_
*44 _027_
*45 _028_
*46 _029_
*47 _030_
*48 _031_
*49 _032_
*50 _033_
*51 _034_
*52 _035_
*53 _036_
*54 _037_
*55 _038_
*56 _039_
*57 _040_
*58 _041_
*59 _042_
*60 _043_
*61 _044_
*62 _045_
*63 _046_
*64 _047_
*65 _048_
*66 _049_
*67 _050_
*68 _051_
*69 _052_
*70 _053_
*71 _054_
*72 _055_
*73 _056_
*74 _057_
*75 _058_
*76 _059_
*77 _060_
*78 _061_
*79 _062_
*80 _063_
*81 _064_
*82 _065_
*83 _066_
*84 _067_
*85 _068_
*86 _069_
*87 _070_
*88 _071_
*89 _072_
*90 _073_
*91 _074_
*92 _075_
*93 _076_
*94 _077_
*95 _078_
*96 _079_
*97 _080_
*98 _081_
*99 _082_
*100 clknet_0_clk
*101 clknet_1_0__leaf_clk
*102 clknet_1_1__leaf_clk
*103 net1
*104 net10
*105 net11
*106 net12
*107 net13
*108 net2
*109 net3
*110 net4
*111 net5
*112 net6
*113 net7
*114 net8
*115 net9
*116 rle1_dec_0\.____state_0
*117 rle1_dec_0\.____state_1\[0\]
*118 rle1_dec_0\.____state_1\[1\]
*119 rle1_dec_0\.____state_1\[2\]
*120 rle1_dec_0\.____state_1\[3\]
*121 rle1_dec_0\.____state_2
*122 rle1_dec_0\.__rle1__input_r_reg\[0\]
*123 rle1_dec_0\.__rle1__input_r_reg\[1\]
*124 rle1_dec_0\.__rle1__input_r_reg\[2\]
*125 rle1_dec_0\.__rle1__input_r_reg\[3\]
*126 rle1_dec_0\.__rle1__input_r_reg\[4\]
*127 rle1_dec_0\.__rle1__input_r_reg\[5\]
*128 rle1_dec_0\.__rle1__input_r_valid_reg
*129 ANTENNA__131__A1
*130 ANTENNA__140__C
*131 ANTENNA__164__B
*132 ANTENNA__166__B
*133 ANTENNA_clkbuf_0_clk_I
*134 ANTENNA_input1_I
*135 ANTENNA_input2_I
*136 ANTENNA_input3_I
*137 ANTENNA_input4_I
*138 ANTENNA_input5_I
*139 ANTENNA_input6_I
*140 ANTENNA_input7_I
*141 ANTENNA_input8_I
*142 ANTENNA_input9_I
*143 FILLER_0_0_104
*144 FILLER_0_0_138
*145 FILLER_0_0_142
*146 FILLER_0_0_28
*147 FILLER_0_0_32
*148 FILLER_0_0_36
*149 FILLER_0_0_70
*150 FILLER_0_10_120
*151 FILLER_0_10_122
*152 FILLER_0_10_2
*153 FILLER_0_10_37
*154 FILLER_0_10_45
*155 FILLER_0_10_96
*156 FILLER_0_11_114
*157 FILLER_0_11_134
*158 FILLER_0_11_138
*159 FILLER_0_11_142
*160 FILLER_0_11_150
*161 FILLER_0_11_2
*162 FILLER_0_11_25
*163 FILLER_0_11_32
*164 FILLER_0_11_4
*165 FILLER_0_11_40
*166 FILLER_0_11_44
*167 FILLER_0_11_52
*168 FILLER_0_11_60
*169 FILLER_0_11_62
*170 FILLER_0_11_72
*171 FILLER_0_12_114
*172 FILLER_0_12_2
*173 FILLER_0_12_37
*174 FILLER_0_12_53
*175 FILLER_0_12_61
*176 FILLER_0_12_65
*177 FILLER_0_12_73
*178 FILLER_0_12_75
*179 FILLER_0_12_97
*180 FILLER_0_13_115
*181 FILLER_0_13_131
*182 FILLER_0_13_139
*183 FILLER_0_13_142
*184 FILLER_0_13_150
*185 FILLER_0_13_16
*186 FILLER_0_13_24
*187 FILLER_0_13_28
*188 FILLER_0_13_30
*189 FILLER_0_13_61
*190 FILLER_0_13_69
*191 FILLER_0_13_72
*192 FILLER_0_13_76
*193 FILLER_0_13_8
*194 FILLER_0_14_10
*195 FILLER_0_14_107
*196 FILLER_0_14_126
*197 FILLER_0_14_142
*198 FILLER_0_14_150
*199 FILLER_0_14_16
*200 FILLER_0_14_2
*201 FILLER_0_14_32
*202 FILLER_0_14_34
*203 FILLER_0_14_37
*204 FILLER_0_14_57
*205 FILLER_0_14_59
*206 FILLER_0_14_97
*207 FILLER_0_15_104
*208 FILLER_0_15_134
*209 FILLER_0_15_138
*210 FILLER_0_15_142
*211 FILLER_0_15_150
*212 FILLER_0_15_16
*213 FILLER_0_15_2
*214 FILLER_0_15_32
*215 FILLER_0_15_36
*216 FILLER_0_15_66
*217 FILLER_0_15_72
*218 FILLER_0_15_74
*219 FILLER_0_15_8
*220 FILLER_0_16_104
*221 FILLER_0_16_108
*222 FILLER_0_16_14
*223 FILLER_0_16_144
*224 FILLER_0_16_18
*225 FILLER_0_16_36
*226 FILLER_0_16_70
*227 FILLER_0_1_12
*228 FILLER_0_1_136
*229 FILLER_0_1_142
*230 FILLER_0_1_150
*231 FILLER_0_1_44
*232 FILLER_0_1_60
*233 FILLER_0_1_68
*234 FILLER_0_1_72
*235 FILLER_0_1_8
*236 FILLER_0_2_103
*237 FILLER_0_2_107
*238 FILLER_0_2_111
*239 FILLER_0_2_115
*240 FILLER_0_2_121
*241 FILLER_0_2_137
*242 FILLER_0_2_145
*243 FILLER_0_2_149
*244 FILLER_0_2_151
*245 FILLER_0_2_2
*246 FILLER_0_2_34
*247 FILLER_0_2_37
*248 FILLER_0_2_43
*249 FILLER_0_2_75
*250 FILLER_0_2_91
*251 FILLER_0_2_99
*252 FILLER_0_3_136
*253 FILLER_0_3_142
*254 FILLER_0_3_146
*255 FILLER_0_3_150
*256 FILLER_0_3_2
*257 FILLER_0_3_66
*258 FILLER_0_3_72
*259 FILLER_0_3_80
*260 FILLER_0_4_119
*261 FILLER_0_4_16
*262 FILLER_0_4_32
*263 FILLER_0_4_34
*264 FILLER_0_4_66
*265 FILLER_0_4_68
*266 FILLER_0_4_8
*267 FILLER_0_4_84
*268 FILLER_0_5_10
*269 FILLER_0_5_150
*270 FILLER_0_5_16
*271 FILLER_0_5_2
*272 FILLER_0_5_24
*273 FILLER_0_5_28
*274 FILLER_0_5_59
*275 FILLER_0_5_61
*276 FILLER_0_6_119
*277 FILLER_0_6_149
*278 FILLER_0_6_151
*279 FILLER_0_6_2
*280 FILLER_0_6_37
*281 FILLER_0_6_45
*282 FILLER_0_6_47
*283 FILLER_0_7_12
*284 FILLER_0_7_147
*285 FILLER_0_7_151
*286 FILLER_0_7_33
*287 FILLER_0_7_49
*288 FILLER_0_7_57
*289 FILLER_0_7_61
*290 FILLER_0_7_72
*291 FILLER_0_7_8
*292 FILLER_0_7_89
*293 FILLER_0_8_107
*294 FILLER_0_8_109
*295 FILLER_0_8_2
*296 FILLER_0_8_37
*297 FILLER_0_8_49
*298 FILLER_0_8_53
*299 FILLER_0_8_57
*300 FILLER_0_9_150
*301 FILLER_0_9_16
*302 FILLER_0_9_24
*303 FILLER_0_9_66
*304 FILLER_0_9_8
*305 PHY_EDGE_ROW_0_Left_17
*306 PHY_EDGE_ROW_0_Right_0
*307 PHY_EDGE_ROW_10_Left_27
*308 PHY_EDGE_ROW_10_Right_10
*309 PHY_EDGE_ROW_11_Left_28
*310 PHY_EDGE_ROW_11_Right_11
*311 PHY_EDGE_ROW_12_Left_29
*312 PHY_EDGE_ROW_12_Right_12
*313 PHY_EDGE_ROW_13_Left_30
*314 PHY_EDGE_ROW_13_Right_13
*315 PHY_EDGE_ROW_14_Left_31
*316 PHY_EDGE_ROW_14_Right_14
*317 PHY_EDGE_ROW_15_Left_32
*318 PHY_EDGE_ROW_15_Right_15
*319 PHY_EDGE_ROW_16_Left_33
*320 PHY_EDGE_ROW_16_Right_16
*321 PHY_EDGE_ROW_1_Left_18
*322 PHY_EDGE_ROW_1_Right_1
*323 PHY_EDGE_ROW_2_Left_19
*324 PHY_EDGE_ROW_2_Right_2
*325 PHY_EDGE_ROW_3_Left_20
*326 PHY_EDGE_ROW_3_Right_3
*327 PHY_EDGE_ROW_4_Left_21
*328 PHY_EDGE_ROW_4_Right_4
*329 PHY_EDGE_ROW_5_Left_22
*330 PHY_EDGE_ROW_5_Right_5
*331 PHY_EDGE_ROW_6_Left_23
*332 PHY_EDGE_ROW_6_Right_6
*333 PHY_EDGE_ROW_7_Left_24
*334 PHY_EDGE_ROW_7_Right_7
*335 PHY_EDGE_ROW_8_Left_25
*336 PHY_EDGE_ROW_8_Right_8
*337 PHY_EDGE_ROW_9_Left_26
*338 PHY_EDGE_ROW_9_Right_9
*339 TAP_TAPCELL_ROW_0_34
*340 TAP_TAPCELL_ROW_0_35
*341 TAP_TAPCELL_ROW_0_36
*342 TAP_TAPCELL_ROW_0_37
*343 TAP_TAPCELL_ROW_10_56
*344 TAP_TAPCELL_ROW_10_57
*345 TAP_TAPCELL_ROW_11_58
*346 TAP_TAPCELL_ROW_11_59
*347 TAP_TAPCELL_ROW_12_60
*348 TAP_TAPCELL_ROW_12_61
*349 TAP_TAPCELL_ROW_13_62
*350 TAP_TAPCELL_ROW_13_63
*351 TAP_TAPCELL_ROW_14_64
*352 TAP_TAPCELL_ROW_14_65
*353 TAP_TAPCELL_ROW_15_66
*354 TAP_TAPCELL_ROW_15_67
*355 TAP_TAPCELL_ROW_16_68
*356 TAP_TAPCELL_ROW_16_69
*357 TAP_TAPCELL_ROW_16_70
*358 TAP_TAPCELL_ROW_16_71
*359 TAP_TAPCELL_ROW_1_38
*360 TAP_TAPCELL_ROW_1_39
*361 TAP_TAPCELL_ROW_2_40
*362 TAP_TAPCELL_ROW_2_41
*363 TAP_TAPCELL_ROW_3_42
*364 TAP_TAPCELL_ROW_3_43
*365 TAP_TAPCELL_ROW_4_44
*366 TAP_TAPCELL_ROW_4_45
*367 TAP_TAPCELL_ROW_5_46
*368 TAP_TAPCELL_ROW_5_47
*369 TAP_TAPCELL_ROW_6_48
*370 TAP_TAPCELL_ROW_6_49
*371 TAP_TAPCELL_ROW_7_50
*372 TAP_TAPCELL_ROW_7_51
*373 TAP_TAPCELL_ROW_8_52
*374 TAP_TAPCELL_ROW_8_53
*375 TAP_TAPCELL_ROW_9_54
*376 TAP_TAPCELL_ROW_9_55
*377 _083_
*378 _084_
*379 _085_
*380 _086_
*381 _087_
*382 _088_
*383 _089_
*384 _090_
*385 _091_
*386 _092_
*387 _093_
*388 _094_
*389 _095_
*390 _096_
*391 _097_
*392 _098_
*393 _099_
*394 _100_
*395 _101_
*396 _102_
*397 _103_
*398 _104_
*399 _105_
*400 _106_
*401 _107_
*402 _108_
*403 _109_
*404 _110_
*405 _111_
*406 _112_
*407 _113_
*408 _114_
*409 _115_
*410 _116_
*411 _117_
*412 _118_
*413 _119_
*414 _120_
*415 _121_
*416 _122_
*417 _123_
*418 _124_
*419 _125_
*420 _126_
*421 _127_
*422 _128_
*423 _129_
*424 _130_
*425 _131_
*426 _132_
*427 _133_
*428 _134_
*429 _135_
*430 _136_
*431 _137_
*432 _138_
*433 _139_
*434 _140_
*435 _141_
*436 _142_
*437 _143_
*438 _144_
*439 _145_
*440 _146_
*441 _147_
*442 _148_
*443 _149_
*444 _150_
*445 _151_
*446 _152_
*447 _153_
*448 _154_
*449 _155_
*450 _156_
*451 _157_
*452 _158_
*453 _159_
*454 _160_
*455 _161_
*456 _162_
*457 _163_
*458 _164_
*459 _165_
*460 _166_
*461 _167_
*462 _168_
*463 _169_
*464 _170_
*465 _171_
*466 _172_
*467 _173_
*468 _174_
*469 _175_
*470 _176_
*471 _177_
*472 _178_
*473 _179_
*474 _180_
*475 _181_
*476 _182_
*477 clkbuf_0_clk
*478 clkbuf_1_0__f_clk
*479 clkbuf_1_1__f_clk
*480 input1
*481 input2
*482 input3
*483 input4
*484 input5
*485 input6
*486 input7
*487 input8
*488 input9
*489 output10
*490 output11
*491 output12
*492 output13

*PORTS
clk I
reset I
rle1__input_r[0] I
rle1__input_r[1] I
rle1__input_r[2] I
rle1__input_r[3] I
rle1__input_r[4] I
rle1__input_r[5] I
rle1__input_r_rdy O
rle1__input_r_vld I
rle1__output_s[0] O
rle1__output_s[1] O
rle1__output_s_rdy I
rle1__output_s_vld O

*D_NET *1 0.00831708
*CONN
*P clk I
*I *133:I I *D gf180mcu_fd_sc_mcu7t5v0__antenna
*I *477:I I *D gf180mcu_fd_sc_mcu7t5v0__clkbuf_16
*CAP
1 clk 0.00212137
2 *133:I 0
3 *477:I 0.000290678
4 *1:15 0.00241205
5 *477:I *392:A1 6.68441e-05
6 *477:I *408:A2 0.000324685
7 *477:I *55:46 0.000147305
8 *477:I *77:12 0
9 *477:I *86:10 7.77019e-05
10 *1:15 *397:I 0.000169363
11 *1:15 *402:A2 2.37472e-05
12 *1:15 *407:A3 0.000344204
13 *1:15 *408:A2 0.000209639
14 *1:15 *417:A3 4.50449e-05
15 *1:15 *428:I0 4.51089e-05
16 *1:15 *438:I 0
17 *1:15 *450:A1 9.72569e-05
18 *1:15 *450:A2 0.000170204
19 *1:15 *451:A1 0.000191339
20 *1:15 *451:B 1.31444e-05
21 *1:15 *453:B 9.04523e-05
22 *1:15 *472:CLK 0.00135922
23 *1:15 *68:16 0
24 *1:15 *90:36 8.92063e-06
25 *1:15 *101:79 2.7979e-05
26 *1:15 *116:12 0
27 *1:15 *122:12 2.25107e-05
28 *1:15 *127:8 5.83188e-05
*RES
1 clk *1:15 26.29 
2 *1:15 *477:I 15.78 
3 *1:15 *133:I 4.5 
*END

*D_NET *2 0.00314357
*CONN
*P reset I
*I *480:I I *D gf180mcu_fd_sc_mcu7t5v0__clkbuf_1
*I *134:I I *D gf180mcu_fd_sc_mcu7t5v0__antenna
*CAP
1 reset 0.00101432
2 *480:I 0.000103311
3 *134:I 9.99425e-05
4 *2:9 0.00121757
5 *134:I *491:I 4.71416e-05
6 *134:I *103:10 8.95196e-05
7 *2:9 rle1__output_s[1] 0.000571762
*RES
1 reset *2:9 11.606 
2 *2:9 *134:I 9.836 
3 *2:9 *480:I 9.684 
*END

*D_NET *3 0.00113464
*CONN
*P rle1__input_r[0] I
*I *135:I I *D gf180mcu_fd_sc_mcu7t5v0__antenna
*I *481:I I *D gf180mcu_fd_sc_mcu7t5v0__clkbuf_1
*CAP
1 rle1__input_r[0] 0.000201351
2 *135:I 0.000255187
3 *481:I 0.000105654
4 *3:5 0.000562193
5 *135:I *380:I 0
6 *481:I *431:I 1.02578e-05
*RES
1 rle1__input_r[0] *3:5 1.406 
2 *3:5 *481:I 9.684 
3 *3:5 *135:I 10.672 
*END

*D_NET *4 0.0014116
*CONN
*P rle1__input_r[1] I
*I *136:I I *D gf180mcu_fd_sc_mcu7t5v0__antenna
*I *482:I I *D gf180mcu_fd_sc_mcu7t5v0__clkbuf_1
*CAP
1 rle1__input_r[1] 0.000219064
2 *136:I 0.000295208
3 *482:I 9.63557e-05
4 *4:5 0.000610628
5 *136:I *439:A1 1.15275e-05
6 *136:I *468:D 2.14834e-05
7 *136:I *468:CLK 8.49277e-05
8 *482:I *435:I 7.24052e-05
*RES
1 rle1__input_r[1] *4:5 1.406 
2 *4:5 *482:I 9.684 
3 *4:5 *136:I 10.672 
*END

*D_NET *5 0.00135008
*CONN
*P rle1__input_r[2] I
*I *137:I I *D gf180mcu_fd_sc_mcu7t5v0__antenna
*I *483:I I *D gf180mcu_fd_sc_mcu7t5v0__clkbuf_1
*CAP
1 rle1__input_r[2] 0.000219064
2 *137:I 0.000236189
3 *483:I 8.95257e-05
4 *5:5 0.000544779
5 *137:I *440:I 1.94858e-05
6 *137:I *445:B 8.62813e-05
7 *137:I *101:16 6.54978e-05
8 *137:I *101:18 9.88736e-06
9 *137:I *101:32 4.72007e-05
10 *483:I *440:I 1.02578e-05
11 *483:I *101:18 1.15275e-05
12 *483:I *101:32 1.03863e-05
*RES
1 rle1__input_r[2] *5:5 1.406 
2 *5:5 *483:I 9.532 
3 *5:5 *137:I 10.52 
*END

*D_NET *6 0.000982679
*CONN
*P rle1__input_r[3] I
*I *138:I I *D gf180mcu_fd_sc_mcu7t5v0__antenna
*I *484:I I *D gf180mcu_fd_sc_mcu7t5v0__clkbuf_1
*CAP
1 rle1__input_r[3] 0.000201351
2 *138:I 0.000217029
3 *484:I 5.77806e-05
4 *6:5 0.00047616
5 *138:I *445:A1 2.6126e-05
6 *138:I *445:C 0
7 *138:I *448:A1 4.2318e-06
*RES
1 rle1__input_r[3] *6:5 1.406 
2 *6:5 *484:I 9.38 
3 *6:5 *138:I 10.368 
*END

*D_NET *7 0.00104791
*CONN
*P rle1__input_r[4] I
*I *139:I I *D gf180mcu_fd_sc_mcu7t5v0__antenna
*I *485:I I *D gf180mcu_fd_sc_mcu7t5v0__clkbuf_1
*CAP
1 rle1__input_r[4] 0.000190895
2 *139:I 0.000312068
3 *485:I 0
4 *7:5 0.000502964
5 *139:I *140:I 2.71172e-05
6 *139:I *451:A1 1.48677e-05
*RES
1 rle1__input_r[4] *7:5 1.406 
2 *7:5 *485:I 9 
3 *7:5 *139:I 11.052 
*END

*D_NET *8 0.00225002
*CONN
*P rle1__input_r[5] I
*I *486:I I *D gf180mcu_fd_sc_mcu7t5v0__clkbuf_1
*I *140:I I *D gf180mcu_fd_sc_mcu7t5v0__antenna
*CAP
1 rle1__input_r[5] 0.000830328
2 *486:I 0
3 *140:I 0.000167985
4 *8:9 0.000998313
5 *140:I *446:I 0.000193942
6 *140:I *449:I 3.23347e-05
7 *139:I *140:I 2.71172e-05
*RES
1 rle1__input_r[5] *8:9 10.086 
2 *8:9 *140:I 14.716 
3 *8:9 *486:I 4.5 
*END

*D_NET *9 0.00156532
*CONN
*P rle1__input_r_rdy O
*I *489:Z O *D gf180mcu_fd_sc_mcu7t5v0__buf_8
*CAP
1 rle1__input_r_rdy 0.000777716
2 *489:Z 0.000777716
3 rle1__input_r_rdy *10:9 9.88736e-06
*RES
1 *489:Z rle1__input_r_rdy 14.282 
*END

*D_NET *10 0.00112865
*CONN
*P rle1__input_r_vld I
*I *487:I I *D gf180mcu_fd_sc_mcu7t5v0__clkbuf_1
*I *141:I I *D gf180mcu_fd_sc_mcu7t5v0__antenna
*CAP
1 rle1__input_r_vld 0.000356867
2 *487:I 4.24085e-05
3 *141:I 0.000160104
4 *10:9 0.00055938
5 *141:I *380:I 0
6 rle1__input_r_rdy *10:9 9.88736e-06
*RES
1 rle1__input_r_vld *10:9 6.742 
2 *10:9 *141:I 14.64 
3 *10:9 *487:I 4.728 
*END

*D_NET *11 0.000979709
*CONN
*P rle1__output_s[0] O
*I *490:Z O *D gf180mcu_fd_sc_mcu7t5v0__buf_8
*CAP
1 rle1__output_s[0] 0.000489854
2 *490:Z 0.000489854
3 rle1__output_s[0] *105:14 0
*RES
1 *490:Z rle1__output_s[0] 11.85 
*END

*D_NET *12 0.0024665
*CONN
*P rle1__output_s[1] O
*I *491:Z O *D gf180mcu_fd_sc_mcu7t5v0__buf_8
*CAP
1 rle1__output_s[1] 0.000947371
2 *491:Z 0.000947371
3 *2:9 rle1__output_s[1] 0.000571762
*RES
1 *491:Z rle1__output_s[1] 16.41 
*END

*D_NET *13 0.00123575
*CONN
*P rle1__output_s_rdy I
*I *488:I I *D gf180mcu_fd_sc_mcu7t5v0__buf_1
*I *142:I I *D gf180mcu_fd_sc_mcu7t5v0__antenna
*CAP
1 rle1__output_s_rdy 0.000421422
2 *488:I 2.4639e-05
3 *142:I 0.000159178
4 *13:9 0.000605238
5 *142:I *115:10 1.5015e-05
6 *488:I *115:10 1.02578e-05
*RES
1 rle1__output_s_rdy *13:9 7.198 
2 *13:9 *142:I 14.564 
3 *13:9 *488:I 4.728 
*END

*D_NET *14 0.00211341
*CONN
*P rle1__output_s_vld O
*I *492:Z O *D gf180mcu_fd_sc_mcu7t5v0__buf_8
*CAP
1 rle1__output_s_vld 0.00045675
2 *492:Z 0.00045675
3 rle1__output_s_vld *460:A2 2.23598e-06
4 rle1__output_s_vld *460:B 0
5 rle1__output_s_vld *476:D 0.000508123
6 rle1__output_s_vld *61:14 0
7 rle1__output_s_vld *119:10 0.000689554
*RES
1 *492:Z rle1__output_s_vld 12.914 
*END

*D_NET *17 0.00143396
*CONN
*I *461:D I *D gf180mcu_fd_sc_mcu7t5v0__dffq_1
*I *402:ZN O *D gf180mcu_fd_sc_mcu7t5v0__aoi21_1
*CAP
1 *461:D 0.000221344
2 *402:ZN 0.000221344
3 *461:D *402:A1 4.58601e-06
4 *461:D *90:36 0.000674454
5 *461:D *103:10 0.000117292
6 *461:D *116:12 0.00019494
7 *461:D *121:6 0
*RES
1 *402:ZN *461:D 20.432 
*END

*D_NET *18 0.00300558
*CONN
*I *462:D I *D gf180mcu_fd_sc_mcu7t5v0__dffq_1
*I *408:ZN O *D gf180mcu_fd_sc_mcu7t5v0__aoi21_1
*CAP
1 *462:D 0.000427433
2 *408:ZN 0.000427433
3 *462:D *378:A3 0.000204605
4 *462:D *383:A3 0.000246919
5 *462:D *392:A2 7.88666e-05
6 *462:D *392:B 4.71425e-05
7 *462:D *405:A1 4.86674e-05
8 *462:D *405:B 0.000715906
9 *462:D *453:A2 0
10 *462:D *453:B 6.75139e-05
11 *462:D *55:18 0.000310691
12 *462:D *63:12 7.54435e-05
13 *462:D *65:10 6.91653e-06
14 *462:D *101:57 0
15 *462:D *117:27 0.000348045
*RES
1 *408:ZN *462:D 23.092 
*END

*D_NET *19 0.000847591
*CONN
*I *463:D I *D gf180mcu_fd_sc_mcu7t5v0__dffq_2
*I *415:ZN O *D gf180mcu_fd_sc_mcu7t5v0__aoi221_1
*CAP
1 *463:D 0.000258842
2 *415:ZN 0.000258842
3 *463:D *415:A2 0
4 *463:D *415:B2 0.000157571
5 *463:D *415:C 9.25377e-05
6 *463:D *61:14 7.2087e-05
7 *463:D *105:14 7.71175e-06
*RES
1 *415:ZN *463:D 11.052 
*END

*D_NET *20 0.0012587
*CONN
*I *464:D I *D gf180mcu_fd_sc_mcu7t5v0__dffq_1
*I *421:ZN O *D gf180mcu_fd_sc_mcu7t5v0__aoi221_1
*CAP
1 *464:D 0.000334157
2 *421:ZN 0.000334157
3 *464:D *420:A1 0.000299171
4 *464:D *90:66 8.18373e-05
5 *464:D *102:8 0.000201957
6 *464:D *102:35 7.4219e-06
7 *464:D *119:10 0
*RES
1 *421:ZN *464:D 21.04 
*END

*D_NET *21 0.00074444
*CONN
*I *465:D I *D gf180mcu_fd_sc_mcu7t5v0__dffq_2
*I *425:ZN O *D gf180mcu_fd_sc_mcu7t5v0__nor2_1
*CAP
1 *465:D 0.000265689
2 *425:ZN 0.000265689
3 *465:D *129:I 1.81888e-05
4 *465:D *384:A2 3.73627e-05
5 *465:D *425:A2 2.9378e-06
6 *465:D *90:66 7.54445e-06
7 *465:D *90:68 5.14116e-06
8 *465:D *115:16 0.000141888
*RES
1 *425:ZN *465:D 10.976 
*END

*D_NET *22 0.000630315
*CONN
*I *466:D I *D gf180mcu_fd_sc_mcu7t5v0__dffq_1
*I *430:ZN O *D gf180mcu_fd_sc_mcu7t5v0__aoi21_1
*CAP
1 *466:D 0.000271219
2 *430:ZN 0.000271219
3 *466:D *428:I0 3.83835e-06
4 *466:D *430:A1 3.73627e-05
5 *466:D *430:A2 4.27813e-05
6 *466:D *121:6 3.89394e-06
*RES
1 *430:ZN *466:D 10.672 
*END

*D_NET *23 0.000854013
*CONN
*I *467:D I *D gf180mcu_fd_sc_mcu7t5v0__dffq_1
*I *434:ZN O *D gf180mcu_fd_sc_mcu7t5v0__aoi211_1
*CAP
1 *467:D 0.000197842
2 *434:ZN 0.000197842
3 *467:D *434:A1 9.26705e-05
4 *467:D *434:B 2.00634e-05
5 *467:D *34:25 0.000318015
6 *467:D *54:21 0
7 *467:D *90:8 2.75799e-05
*RES
1 *434:ZN *467:D 10.672 
*END

*D_NET *24 0.00123401
*CONN
*I *468:D I *D gf180mcu_fd_sc_mcu7t5v0__dffq_1
*I *439:ZN O *D gf180mcu_fd_sc_mcu7t5v0__aoi211_1
*CAP
1 *468:D 0.000330724
2 *439:ZN 0.000330724
3 *468:D *439:A1 0.000524875
4 *468:D *442:B 0
5 *468:D *442:C 1.20889e-05
6 *468:D *468:CLK 9.14037e-06
7 *468:D *104:17 4.97712e-06
8 *136:I *468:D 2.14834e-05
*RES
1 *439:ZN *468:D 20.66 
*END

*D_NET *25 0.000261925
*CONN
*I *469:D I *D gf180mcu_fd_sc_mcu7t5v0__dffq_1
*I *442:ZN O *D gf180mcu_fd_sc_mcu7t5v0__aoi211_1
*CAP
1 *469:D 8.42059e-05
2 *442:ZN 8.42059e-05
3 *469:D *442:B 7.53241e-05
4 *469:D *468:CLK 1.81888e-05
*RES
1 *442:ZN *469:D 9.684 
*END

*D_NET *26 0.000417225
*CONN
*I *470:D I *D gf180mcu_fd_sc_mcu7t5v0__dffq_1
*I *445:ZN O *D gf180mcu_fd_sc_mcu7t5v0__aoi211_1
*CAP
1 *470:D 0.000159853
2 *445:ZN 0.000159853
3 *470:D *445:A2 7.71175e-06
4 *470:D *445:B 7.53241e-05
5 *470:D *471:CLK 1.44832e-05
*RES
1 *445:ZN *470:D 10.216 
*END

*D_NET *27 0.000468711
*CONN
*I *471:D I *D gf180mcu_fd_sc_mcu7t5v0__dffq_1
*I *448:ZN O *D gf180mcu_fd_sc_mcu7t5v0__aoi211_1
*CAP
1 *471:D 0.000139996
2 *448:ZN 0.000139996
3 *471:D *445:A1 6.68265e-05
4 *471:D *445:A2 7.50749e-05
5 *471:D *448:A1 4.6818e-05
*RES
1 *448:ZN *471:D 10.216 
*END

*D_NET *28 0.000704554
*CONN
*I *472:D I *D gf180mcu_fd_sc_mcu7t5v0__dffq_1
*I *451:ZN O *D gf180mcu_fd_sc_mcu7t5v0__aoi211_1
*CAP
1 *472:D 0.000128656
2 *451:ZN 0.000128656
3 *472:D *450:A1 0
4 *472:D *450:A2 5.76373e-06
5 *472:D *451:A1 0.000360226
6 *472:D *451:A2 2.17248e-05
7 *472:D *451:C 1.44832e-05
8 *472:D *90:36 4.50449e-05
*RES
1 *451:ZN *472:D 10.292 
*END

*D_NET *29 0.000567444
*CONN
*I *473:D I *D gf180mcu_fd_sc_mcu7t5v0__dffq_1
*I *453:ZN O *D gf180mcu_fd_sc_mcu7t5v0__aoi21_1
*CAP
1 *473:D 0.000144306
2 *453:ZN 0.000144306
3 *473:D *434:A1 0.000273856
4 *473:D *473:CLK 4.97712e-06
*RES
1 *453:ZN *473:D 10.292 
*END

*D_NET *30 0.00199511
*CONN
*I *474:D I *D gf180mcu_fd_sc_mcu7t5v0__dffq_1
*I *455:ZN O *D gf180mcu_fd_sc_mcu7t5v0__aoi211_1
*CAP
1 *474:D 0.000507941
2 *455:ZN 0.000507941
3 *474:D *411:A1 0
4 *474:D *415:B1 3.96732e-05
5 *474:D *415:B2 1.53748e-05
6 *474:D *429:A1 0
7 *474:D *455:A1 8.95196e-05
8 *474:D *74:48 1.94858e-05
9 *474:D *90:66 0.00075923
10 *474:D *102:50 5.59457e-05
*RES
1 *455:ZN *474:D 21.648 
*END

*D_NET *31 0.000568576
*CONN
*I *475:D I *D gf180mcu_fd_sc_mcu7t5v0__dffq_1
*I *458:ZN O *D gf180mcu_fd_sc_mcu7t5v0__aoi21_1
*CAP
1 *475:D 0.000254901
2 *458:ZN 0.000254901
3 *475:D *457:A1 5.29084e-05
4 *475:D *458:B 5.86454e-06
*RES
1 *458:ZN *475:D 10.672 
*END

*D_NET *32 0.00158089
*CONN
*I *476:D I *D gf180mcu_fd_sc_mcu7t5v0__dffq_2
*I *460:ZN O *D gf180mcu_fd_sc_mcu7t5v0__aoi21_1
*CAP
1 *476:D 0.000366923
2 *460:ZN 0.000366923
3 *476:D *459:A2 4.41703e-05
4 *476:D *61:14 0.000116355
5 *476:D *90:79 0
6 *476:D *119:10 0.000178393
7 rle1__output_s_vld *476:D 0.000508123
*RES
1 *460:ZN *476:D 21.344 
*END

*D_NET *33 0.00203166
*CONN
*I *439:A1 I *D gf180mcu_fd_sc_mcu7t5v0__aoi211_1
*I *435:ZN O *D gf180mcu_fd_sc_mcu7t5v0__clkinv_1
*CAP
1 *439:A1 0.00033212
2 *435:ZN 0.00033212
3 *439:A1 *435:I 8.95196e-05
4 *439:A1 *442:B 5.97012e-05
5 *439:A1 *442:C 0.000681798
6 *439:A1 *468:CLK 0
7 *136:I *439:A1 1.15275e-05
8 *468:D *439:A1 0.000524875
*RES
1 *435:ZN *439:A1 21.876 
*END

*D_NET *34 0.00394008
*CONN
*I *441:A2 I *D gf180mcu_fd_sc_mcu7t5v0__nor2_1
*I *447:A2 I *D gf180mcu_fd_sc_mcu7t5v0__nor2_1
*I *444:A2 I *D gf180mcu_fd_sc_mcu7t5v0__nor2_1
*I *437:A2 I *D gf180mcu_fd_sc_mcu7t5v0__nor2_1
*I *436:Z O *D gf180mcu_fd_sc_mcu7t5v0__clkbuf_1
*CAP
1 *441:A2 0
2 *447:A2 0.000222622
3 *444:A2 0
4 *437:A2 0
5 *436:Z 8.83196e-05
6 *34:31 0.00031242
7 *34:25 0.00035128
8 *34:10 0.000349802
9 *447:A2 *444:A1 1.5015e-05
10 *447:A2 *445:B 4.52251e-05
11 *447:A2 *447:A1 8.69929e-05
12 *447:A2 *448:B 5.53027e-05
13 *447:A2 *36:14 0.000257032
14 *34:10 *434:A1 0.00013173
15 *34:10 *101:57 1.15312e-05
16 *34:25 *392:A1 0.000218595
17 *34:25 *394:A1 8.2746e-05
18 *34:25 *396:A1 0.000149613
19 *34:25 *434:A1 6.66593e-05
20 *34:25 *434:B 8.04139e-05
21 *34:25 *434:C 3.73627e-05
22 *34:25 *441:A1 4.38599e-05
23 *34:25 *54:21 0.000303311
24 *34:25 *90:8 1.5015e-05
25 *34:25 *101:57 1.15275e-05
26 *34:25 *125:10 0.000201947
27 *34:31 *392:A1 1.81333e-05
28 *34:31 *444:A1 8.47066e-05
29 *34:31 *101:16 0.000380904
30 *467:D *34:25 0.000318015
*RES
1 *436:Z *34:10 5.488 
2 *34:10 *437:A2 4.5 
3 *34:10 *34:25 12.724 
4 *34:25 *34:31 9.988 
5 *34:31 *444:A2 4.5 
6 *34:31 *447:A2 6.628 
7 *34:25 *441:A2 4.5 
*END

*D_NET *35 0.00110063
*CONN
*I *439:B I *D gf180mcu_fd_sc_mcu7t5v0__aoi211_1
*I *437:ZN O *D gf180mcu_fd_sc_mcu7t5v0__nor2_1
*CAP
1 *439:B 0.000353852
2 *437:ZN 0.000353852
3 *439:B *434:A1 1.15312e-05
4 *439:B *434:A2 0
5 *439:B *442:C 3.37485e-05
6 *439:B *453:B 0
7 *439:B *54:10 0
8 *439:B *101:57 1.52768e-05
9 *439:B *104:23 0
10 *439:B *123:10 0.00033237
*RES
1 *437:ZN *439:B 20.736 
*END

*D_NET *36 0.00693095
*CONN
*I *448:C I *D gf180mcu_fd_sc_mcu7t5v0__aoi211_1
*I *445:C I *D gf180mcu_fd_sc_mcu7t5v0__aoi211_1
*I *442:C I *D gf180mcu_fd_sc_mcu7t5v0__aoi211_1
*I *439:C I *D gf180mcu_fd_sc_mcu7t5v0__aoi211_1
*I *438:Z O *D gf180mcu_fd_sc_mcu7t5v0__clkbuf_1
*CAP
1 *448:C 6.12535e-05
2 *445:C 0.000476766
3 *442:C 0.000391929
4 *439:C 2.35473e-05
5 *438:Z 0.000230796
6 *36:40 0.000700336
7 *36:14 0.000866828
8 *36:6 0.000844463
9 *439:C *104:17 8.55242e-05
10 *439:C *104:23 7.45328e-07
11 *442:C *435:I 0
12 *442:C *442:A1 0
13 *442:C *442:B 8.02751e-06
14 *442:C *468:CLK 1.72912e-05
15 *442:C *104:23 7.52312e-05
16 *445:C *471:CLK 0.000147305
17 *445:C *98:12 0.000187884
18 *448:C *448:A1 8.01724e-06
19 *448:C *448:B 4.58601e-06
20 *36:6 *438:I 1.02578e-05
21 *36:6 *450:A2 0
22 *36:6 *54:21 7.49908e-05
23 *36:6 *126:8 0.000379283
24 *36:14 *396:A1 3.55306e-05
25 *36:14 *441:A1 9.84159e-05
26 *36:14 *442:B 0.00012749
27 *36:14 *444:A1 3.70016e-05
28 *36:14 *447:A1 0.000196843
29 *36:14 *54:21 2.2761e-05
30 *36:14 *104:17 0.000310356
31 *36:14 *104:23 1.71121e-05
32 *36:14 *125:10 0.000124452
33 *36:14 *126:8 0.000124952
34 *36:40 *98:12 0.000256306
35 *138:I *445:C 0
36 *439:A1 *442:C 0.000681798
37 *439:B *442:C 3.37485e-05
38 *447:A2 *36:14 0.000257032
39 *468:D *442:C 1.20889e-05
*RES
1 *438:Z *36:6 6.552 
2 *36:6 *36:14 5.016 
3 *36:14 *439:C 4.728 
4 *36:14 *442:C 16.616 
5 *36:6 *36:40 5.944 
6 *36:40 *445:C 11.888 
7 *36:40 *448:C 9.38 
*END

*D_NET *37 0.00133008
*CONN
*I *442:A1 I *D gf180mcu_fd_sc_mcu7t5v0__aoi211_1
*I *440:ZN O *D gf180mcu_fd_sc_mcu7t5v0__clkinv_1
*CAP
1 *442:A1 0.000373039
2 *440:ZN 0.000373039
3 *442:A1 *442:B 0.000554807
4 *442:A1 *101:16 0
5 *442:A1 *101:18 1.81888e-05
6 *442:A1 *104:23 1.10091e-05
7 *442:C *442:A1 0
*RES
1 *440:ZN *442:A1 20.66 
*END

*D_NET *38 0.00233085
*CONN
*I *442:B I *D gf180mcu_fd_sc_mcu7t5v0__aoi211_1
*I *441:ZN O *D gf180mcu_fd_sc_mcu7t5v0__nor2_1
*CAP
1 *442:B 0.000541674
2 *441:ZN 0.000541674
3 *442:B *434:A2 1.85312e-05
4 *442:B *441:A1 0.00012749
5 *442:B *444:A1 0.0001468
6 *442:B *468:CLK 0
7 *442:B *101:16 2.73114e-05
8 *442:B *101:18 0
9 *442:B *104:23 0.000102021
10 *439:A1 *442:B 5.97012e-05
11 *442:A1 *442:B 0.000554807
12 *442:C *442:B 8.02751e-06
13 *468:D *442:B 0
14 *469:D *442:B 7.53241e-05
15 *36:14 *442:B 0.00012749
*RES
1 *441:ZN *442:B 22.788 
*END

*D_NET *39 0.000801163
*CONN
*I *445:A1 I *D gf180mcu_fd_sc_mcu7t5v0__aoi211_1
*I *443:ZN O *D gf180mcu_fd_sc_mcu7t5v0__clkinv_1
*CAP
1 *445:A1 0.000261023
2 *443:ZN 0.000261023
3 *445:A1 *443:I 5.1289e-05
4 *445:A1 *448:A1 2.98535e-05
5 *445:A1 *471:CLK 0.000105022
6 *138:I *445:A1 2.6126e-05
7 *471:D *445:A1 6.68265e-05
*RES
1 *443:ZN *445:A1 11.128 
*END

*D_NET *40 0.00220954
*CONN
*I *445:B I *D gf180mcu_fd_sc_mcu7t5v0__aoi211_1
*I *444:ZN O *D gf180mcu_fd_sc_mcu7t5v0__nor2_1
*CAP
1 *445:B 0.000533465
2 *444:ZN 0.000533465
3 *445:B *444:A1 0.000154451
4 *445:B *471:CLK 0.00032464
5 *445:B *98:12 0
6 *445:B *101:16 0.000302235
7 *445:B *101:32 0.000154451
8 *137:I *445:B 8.62813e-05
9 *447:A2 *445:B 4.52251e-05
10 *470:D *445:B 7.53241e-05
*RES
1 *444:ZN *445:B 22.788 
*END

*D_NET *41 0.00125782
*CONN
*I *448:A1 I *D gf180mcu_fd_sc_mcu7t5v0__aoi211_1
*I *446:ZN O *D gf180mcu_fd_sc_mcu7t5v0__clkinv_1
*CAP
1 *448:A1 0.000580829
2 *446:ZN 0.000580829
3 *448:A1 *443:I 7.24161e-06
4 *138:I *448:A1 4.2318e-06
5 *445:A1 *448:A1 2.98535e-05
6 *448:C *448:A1 8.01724e-06
7 *471:D *448:A1 4.6818e-05
*RES
1 *446:ZN *448:A1 12.648 
*END

*D_NET *42 0.000479772
*CONN
*I *448:B I *D gf180mcu_fd_sc_mcu7t5v0__aoi211_1
*I *447:ZN O *D gf180mcu_fd_sc_mcu7t5v0__nor2_1
*CAP
1 *448:B 0.000198686
2 *447:ZN 0.000198686
3 *448:B *447:A1 2.25107e-05
4 *447:A2 *448:B 5.53027e-05
5 *448:C *448:B 4.58601e-06
*RES
1 *447:ZN *448:B 10.596 
*END

*D_NET *43 0.00242957
*CONN
*I *451:A1 I *D gf180mcu_fd_sc_mcu7t5v0__aoi211_1
*I *449:ZN O *D gf180mcu_fd_sc_mcu7t5v0__clkinv_1
*CAP
1 *451:A1 0.000753339
2 *449:ZN 0.000753339
3 *451:A1 *450:A2 2.17248e-05
4 *451:A1 *472:CLK 0.000334735
5 *139:I *451:A1 1.48677e-05
6 *472:D *451:A1 0.000360226
7 *1:15 *451:A1 0.000191339
*RES
1 *449:ZN *451:A1 23.776 
*END

*D_NET *44 0.000872314
*CONN
*I *451:B I *D gf180mcu_fd_sc_mcu7t5v0__aoi211_1
*I *450:ZN O *D gf180mcu_fd_sc_mcu7t5v0__nor2_1
*CAP
1 *451:B 2.60791e-05
2 *450:ZN 2.60791e-05
3 *451:B *450:A2 0.000403764
4 *451:B *90:36 0.000396912
5 *451:B *103:14 6.33531e-06
6 *1:15 *451:B 1.31444e-05
*RES
1 *450:ZN *451:B 19.14 
*END

*D_NET *45 0.00249256
*CONN
*I *453:A2 I *D gf180mcu_fd_sc_mcu7t5v0__aoi21_1
*I *452:ZN O *D gf180mcu_fd_sc_mcu7t5v0__nand2_1
*CAP
1 *453:A2 0.000323177
2 *452:ZN 0.000323177
3 *453:A2 *381:A1 2.24e-05
4 *453:A2 *381:A2 0.000937883
5 *453:A2 *381:B 0.000151957
6 *453:A2 *405:B 0
7 *453:A2 *434:A1 2.22758e-05
8 *453:A2 *453:B 0.000173493
9 *453:A2 *473:CLK 4.60038e-05
10 *453:A2 *51:10 0.000276717
11 *453:A2 *54:10 0.00021548
12 *462:D *453:A2 0
*RES
1 *452:ZN *453:A2 22.408 
*END

*D_NET *46 0.0011841
*CONN
*I *455:B I *D gf180mcu_fd_sc_mcu7t5v0__aoi211_1
*I *454:ZN O *D gf180mcu_fd_sc_mcu7t5v0__nor2_1
*CAP
1 *455:B 0.000309643
2 *454:ZN 0.000309643
3 *455:B *426:A2 1.71854e-05
4 *455:B *490:I 0.000317494
5 *455:B *57:24 8.7332e-05
6 *455:B *61:25 0
7 *455:B *84:18 0.000142801
8 *455:B *103:10 0
*RES
1 *454:ZN *455:B 20.28 
*END

*D_NET *47 0.000514631
*CONN
*I *458:A1 I *D gf180mcu_fd_sc_mcu7t5v0__aoi21_1
*I *456:ZN O *D gf180mcu_fd_sc_mcu7t5v0__nand2_1
*CAP
1 *458:A1 0.000234913
2 *456:ZN 0.000234913
3 *458:A1 *458:B 3.42287e-06
4 *458:A1 *90:66 4.13816e-05
*RES
1 *456:ZN *458:A1 10.368 
*END

*D_NET *48 0.000109345
*CONN
*I *458:A2 I *D gf180mcu_fd_sc_mcu7t5v0__aoi21_1
*I *457:ZN O *D gf180mcu_fd_sc_mcu7t5v0__nand2_1
*CAP
1 *458:A2 5.46724e-05
2 *457:ZN 5.46724e-05
*RES
1 *457:ZN *458:A2 9.38 
*END

*D_NET *49 0.00150216
*CONN
*I *460:A1 I *D gf180mcu_fd_sc_mcu7t5v0__aoi21_1
*I *459:ZN O *D gf180mcu_fd_sc_mcu7t5v0__nand2_1
*CAP
1 *460:A1 4.20167e-05
2 *459:ZN 4.20167e-05
3 *460:A1 *416:I 0.00018047
4 *460:A1 *459:A1 0.000796594
5 *460:A1 *119:10 0.000441063
*RES
1 *459:ZN *460:A1 11.052 
*END

*D_NET *50 0.00360718
*CONN
*I *384:A1 I *D gf180mcu_fd_sc_mcu7t5v0__oai22_2
*I *379:A1 I *D gf180mcu_fd_sc_mcu7t5v0__oai21_2
*I *377:ZN O *D gf180mcu_fd_sc_mcu7t5v0__inv_1
*CAP
1 *384:A1 0
2 *379:A1 0.000270076
3 *377:ZN 0.000667863
4 *50:12 0.000937938
5 *379:A1 *379:A2 0.00103828
6 *379:A1 *388:A1 3.88319e-05
7 *379:A1 *128:32 0.000168053
8 *50:12 *384:A2 5.87561e-06
9 *50:12 *388:A2 5.87975e-05
10 *50:12 *115:16 0.000421467
*RES
1 *377:ZN *50:12 18.516 
2 *50:12 *379:A1 16.768 
3 *50:12 *384:A1 4.5 
*END

*D_NET *51 0.00152624
*CONN
*I *379:B I *D gf180mcu_fd_sc_mcu7t5v0__oai21_2
*I *391:I I *D gf180mcu_fd_sc_mcu7t5v0__clkbuf_2
*I *378:ZN O *D gf180mcu_fd_sc_mcu7t5v0__nor4_4
*CAP
1 *379:B 0.000279375
2 *391:I 0
3 *378:ZN 0.000233681
4 *51:10 0.000513056
5 *379:B *452:A1 2.11302e-05
6 *379:B *52:8 0
7 *379:B *63:12 6.46778e-06
8 *379:B *128:8 3.56141e-05
9 *51:10 *381:A2 7.7909e-05
10 *51:10 *392:B 6.57222e-06
11 *51:10 *405:B 3.82135e-05
12 *51:10 *117:27 7.21912e-06
13 *51:10 *128:32 3.02843e-05
14 *453:A2 *51:10 0.000276717
*RES
1 *378:ZN *51:10 15.248 
2 *51:10 *391:I 4.5 
3 *51:10 *379:B 6.172 
*END

*D_NET *52 0.00219685
*CONN
*I *452:A2 I *D gf180mcu_fd_sc_mcu7t5v0__nand2_1
*I *381:A2 I *D gf180mcu_fd_sc_mcu7t5v0__aoi21_2
*I *379:ZN O *D gf180mcu_fd_sc_mcu7t5v0__oai21_2
*CAP
1 *452:A2 0
2 *381:A2 9.75028e-05
3 *379:ZN 0.000187915
4 *52:8 0.000285418
5 *381:A2 *381:A1 0.000201754