*SPEF "ieee 1481-1999"
*DESIGN "user_project_wrapper"
*DATE "11:11:11 Fri 11 11, 1111"
*VENDOR "OpenRCX"
*PROGRAM "Parallel Extraction"
*VERSION "1.0"
*DESIGN_FLOW "NAME_SCOPE LOCAL" "PIN_CAP NONE"
*DIVIDER /
*DELIMITER :
*BUS_DELIMITER []
*T_UNIT 1 NS
*C_UNIT 1 PF
*R_UNIT 1 OHM
*L_UNIT 1 HENRY

*NAME_MAP
*1 io_in[0]
*2 io_in[10]
*3 io_in[11]
*4 io_in[12]
*5 io_in[13]
*6 io_in[14]
*7 io_in[15]
*8 io_in[16]
*9 io_in[17]
*10 io_in[18]
*11 io_in[19]
*12 io_in[1]
*13 io_in[20]
*14 io_in[21]
*15 io_in[22]
*16 io_in[23]
*17 io_in[24]
*18 io_in[25]
*19 io_in[26]
*20 io_in[27]
*21 io_in[28]
*22 io_in[29]
*23 io_in[2]
*24 io_in[30]
*25 io_in[31]
*26 io_in[32]
*27 io_in[33]
*28 io_in[34]
*29 io_in[35]
*30 io_in[36]
*31 io_in[37]
*32 io_in[3]
*33 io_in[4]
*34 io_in[5]
*35 io_in[6]
*36 io_in[7]
*37 io_in[8]
*38 io_in[9]
*39 io_oeb[0]
*40 io_oeb[10]
*41 io_oeb[11]
*42 io_oeb[12]
*43 io_oeb[13]
*44 io_oeb[14]
*45 io_oeb[15]
*46 io_oeb[16]
*47 io_oeb[17]
*48 io_oeb[18]
*49 io_oeb[19]
*50 io_oeb[1]
*51 io_oeb[20]
*52 io_oeb[21]
*53 io_oeb[22]
*54 io_oeb[23]
*55 io_oeb[24]
*56 io_oeb[25]
*57 io_oeb[26]
*58 io_oeb[27]
*59 io_oeb[28]
*60 io_oeb[29]
*61 io_oeb[2]
*62 io_oeb[30]
*63 io_oeb[31]
*64 io_oeb[32]
*65 io_oeb[33]
*66 io_oeb[34]
*67 io_oeb[35]
*68 io_oeb[36]
*69 io_oeb[37]
*70 io_oeb[3]
*71 io_oeb[4]
*72 io_oeb[5]
*73 io_oeb[6]
*74 io_oeb[7]
*75 io_oeb[8]
*76 io_oeb[9]
*77 io_out[0]
*78 io_out[10]
*79 io_out[11]
*80 io_out[12]
*81 io_out[13]
*82 io_out[14]
*83 io_out[15]
*84 io_out[16]
*85 io_out[17]
*86 io_out[18]
*87 io_out[19]
*88 io_out[1]
*89 io_out[20]
*90 io_out[21]
*91 io_out[22]
*92 io_out[23]
*93 io_out[24]
*94 io_out[25]
*95 io_out[26]
*96 io_out[27]
*97 io_out[28]
*98 io_out[29]
*99 io_out[2]
*100 io_out[30]
*101 io_out[31]
*102 io_out[32]
*103 io_out[33]
*104 io_out[34]
*105 io_out[35]
*106 io_out[36]
*107 io_out[37]
*108 io_out[3]
*109 io_out[4]
*110 io_out[5]
*111 io_out[6]
*112 io_out[7]
*113 io_out[8]
*114 io_out[9]
*115 la_data_in[0]
*116 la_data_in[10]
*117 la_data_in[11]
*118 la_data_in[12]
*119 la_data_in[13]
*120 la_data_in[14]
*121 la_data_in[15]
*122 la_data_in[16]
*123 la_data_in[17]
*124 la_data_in[18]
*125 la_data_in[19]
*126 la_data_in[1]
*127 la_data_in[20]
*128 la_data_in[21]
*129 la_data_in[22]
*130 la_data_in[23]
*131 la_data_in[24]
*132 la_data_in[25]
*133 la_data_in[26]
*134 la_data_in[27]
*135 la_data_in[28]
*136 la_data_in[29]
*137 la_data_in[2]
*138 la_data_in[30]
*139 la_data_in[31]
*140 la_data_in[32]
*141 la_data_in[33]
*142 la_data_in[34]
*143 la_data_in[35]
*144 la_data_in[36]
*145 la_data_in[37]
*146 la_data_in[38]
*147 la_data_in[39]
*148 la_data_in[3]
*149 la_data_in[40]
*150 la_data_in[41]
*151 la_data_in[42]
*152 la_data_in[43]
*153 la_data_in[44]
*154 la_data_in[45]
*155 la_data_in[46]
*156 la_data_in[47]
*157 la_data_in[48]
*158 la_data_in[49]
*159 la_data_in[4]
*160 la_data_in[50]
*161 la_data_in[51]
*162 la_data_in[52]
*163 la_data_in[53]
*164 la_data_in[54]
*165 la_data_in[55]
*166 la_data_in[56]
*167 la_data_in[57]
*168 la_data_in[58]
*169 la_data_in[59]
*170 la_data_in[5]
*171 la_data_in[60]
*172 la_data_in[61]
*173 la_data_in[62]
*174 la_data_in[63]
*175 la_data_in[6]
*176 la_data_in[7]
*177 la_data_in[8]
*178 la_data_in[9]
*179 la_data_out[0]
*180 la_data_out[10]
*181 la_data_out[11]
*182 la_data_out[12]
*183 la_data_out[13]
*184 la_data_out[14]
*185 la_data_out[15]
*186 la_data_out[16]
*187 la_data_out[17]
*188 la_data_out[18]
*189 la_data_out[19]
*190 la_data_out[1]
*191 la_data_out[20]
*192 la_data_out[21]
*193 la_data_out[22]
*194 la_data_out[23]
*195 la_data_out[24]
*196 la_data_out[25]
*197 la_data_out[26]
*198 la_data_out[27]
*199 la_data_out[28]
*200 la_data_out[29]
*201 la_data_out[2]
*202 la_data_out[30]
*203 la_data_out[31]
*204 la_data_out[32]
*205 la_data_out[33]
*206 la_data_out[34]
*207 la_data_out[35]
*208 la_data_out[36]
*209 la_data_out[37]
*210 la_data_out[38]
*211 la_data_out[39]
*212 la_data_out[3]
*213 la_data_out[40]
*214 la_data_out[41]
*215 la_data_out[42]
*216 la_data_out[43]
*217 la_data_out[44]
*218 la_data_out[45]
*219 la_data_out[46]
*220 la_data_out[47]
*221 la_data_out[48]
*222 la_data_out[49]
*223 la_data_out[4]
*224 la_data_out[50]
*225 la_data_out[51]
*226 la_data_out[52]
*227 la_data_out[53]
*228 la_data_out[54]
*229 la_data_out[55]
*230 la_data_out[56]
*231 la_data_out[57]
*232 la_data_out[58]
*233 la_data_out[59]
*234 la_data_out[5]
*235 la_data_out[60]
*236 la_data_out[61]
*237 la_data_out[62]
*238 la_data_out[63]
*239 la_data_out[6]
*240 la_data_out[7]
*241 la_data_out[8]
*242 la_data_out[9]
*243 la_oenb[0]
*244 la_oenb[10]
*245 la_oenb[11]
*246 la_oenb[12]
*247 la_oenb[13]
*248 la_oenb[14]
*249 la_oenb[15]
*250 la_oenb[16]
*251 la_oenb[17]
*252 la_oenb[18]
*253 la_oenb[19]
*254 la_oenb[1]
*255 la_oenb[20]
*256 la_oenb[21]
*257 la_oenb[22]
*258 la_oenb[23]
*259 la_oenb[24]
*260 la_oenb[25]
*261 la_oenb[26]
*262 la_oenb[27]
*263 la_oenb[28]
*264 la_oenb[29]
*265 la_oenb[2]
*266 la_oenb[30]
*267 la_oenb[31]
*268 la_oenb[32]
*269 la_oenb[33]
*270 la_oenb[34]
*271 la_oenb[35]
*272 la_oenb[36]
*273 la_oenb[37]
*274 la_oenb[38]
*275 la_oenb[39]
*276 la_oenb[3]
*277 la_oenb[40]
*278 la_oenb[41]
*279 la_oenb[42]
*280 la_oenb[43]
*281 la_oenb[44]
*282 la_oenb[45]
*283 la_oenb[46]
*284 la_oenb[47]
*285 la_oenb[48]
*286 la_oenb[49]
*287 la_oenb[4]
*288 la_oenb[50]
*289 la_oenb[51]
*290 la_oenb[52]
*291 la_oenb[53]
*292 la_oenb[54]
*293 la_oenb[55]
*294 la_oenb[56]
*295 la_oenb[57]
*296 la_oenb[58]
*297 la_oenb[59]
*298 la_oenb[5]
*299 la_oenb[60]
*300 la_oenb[61]
*301 la_oenb[62]
*302 la_oenb[63]
*303 la_oenb[6]
*304 la_oenb[7]
*305 la_oenb[8]
*306 la_oenb[9]
*307 user_clock2
*308 user_irq[0]
*309 user_irq[1]
*310 user_irq[2]
*313 wb_clk_i
*314 wb_rst_i
*315 wbs_ack_o
*316 wbs_adr_i[0]
*317 wbs_adr_i[10]
*318 wbs_adr_i[11]
*319 wbs_adr_i[12]
*320 wbs_adr_i[13]
*321 wbs_adr_i[14]
*322 wbs_adr_i[15]
*323 wbs_adr_i[16]
*324 wbs_adr_i[17]
*325 wbs_adr_i[18]
*326 wbs_adr_i[19]
*327 wbs_adr_i[1]
*328 wbs_adr_i[20]
*329 wbs_adr_i[21]
*330 wbs_adr_i[22]
*331 wbs_adr_i[23]
*332 wbs_adr_i[24]
*333 wbs_adr_i[25]
*334 wbs_adr_i[26]
*335 wbs_adr_i[27]
*336 wbs_adr_i[28]
*337 wbs_adr_i[29]
*338 wbs_adr_i[2]
*339 wbs_adr_i[30]
*340 wbs_adr_i[31]
*341 wbs_adr_i[3]
*342 wbs_adr_i[4]
*343 wbs_adr_i[5]
*344 wbs_adr_i[6]
*345 wbs_adr_i[7]
*346 wbs_adr_i[8]
*347 wbs_adr_i[9]
*348 wbs_cyc_i
*349 wbs_dat_i[0]
*350 wbs_dat_i[10]
*351 wbs_dat_i[11]
*352 wbs_dat_i[12]
*353 wbs_dat_i[13]
*354 wbs_dat_i[14]
*355 wbs_dat_i[15]
*356 wbs_dat_i[16]
*357 wbs_dat_i[17]
*358 wbs_dat_i[18]
*359 wbs_dat_i[19]
*360 wbs_dat_i[1]
*361 wbs_dat_i[20]
*362 wbs_dat_i[21]
*363 wbs_dat_i[22]
*364 wbs_dat_i[23]
*365 wbs_dat_i[24]
*366 wbs_dat_i[25]
*367 wbs_dat_i[26]
*368 wbs_dat_i[27]
*369 wbs_dat_i[28]
*370 wbs_dat_i[29]
*371 wbs_dat_i[2]
*372 wbs_dat_i[30]
*373 wbs_dat_i[31]
*374 wbs_dat_i[3]
*375 wbs_dat_i[4]
*376 wbs_dat_i[5]
*377 wbs_dat_i[6]
*378 wbs_dat_i[7]
*379 wbs_dat_i[8]
*380 wbs_dat_i[9]
*381 wbs_dat_o[0]
*382 wbs_dat_o[10]
*383 wbs_dat_o[11]
*384 wbs_dat_o[12]
*385 wbs_dat_o[13]
*386 wbs_dat_o[14]
*387 wbs_dat_o[15]
*388 wbs_dat_o[16]
*389 wbs_dat_o[17]
*390 wbs_dat_o[18]
*391 wbs_dat_o[19]
*392 wbs_dat_o[1]
*393 wbs_dat_o[20]
*394 wbs_dat_o[21]
*395 wbs_dat_o[22]
*396 wbs_dat_o[23]
*397 wbs_dat_o[24]
*398 wbs_dat_o[25]
*399 wbs_dat_o[26]
*400 wbs_dat_o[27]
*401 wbs_dat_o[28]
*402 wbs_dat_o[29]
*403 wbs_dat_o[2]
*404 wbs_dat_o[30]
*405 wbs_dat_o[31]
*406 wbs_dat_o[3]
*407 wbs_dat_o[4]
*408 wbs_dat_o[5]
*409 wbs_dat_o[6]
*410 wbs_dat_o[7]
*411 wbs_dat_o[8]
*412 wbs_dat_o[9]
*413 wbs_sel_i[0]
*414 wbs_sel_i[1]
*415 wbs_sel_i[2]
*416 wbs_sel_i[3]
*417 wbs_stb_i
*418 wbs_we_i
*419 _000_
*420 _001_
*421 _002_
*422 _003_
*423 _004_
*424 _005_
*425 _006_
*426 _007_
*427 _008_
*428 _009_
*429 _010_
*430 _011_
*431 _012_
*432 _013_
*433 _014_
*434 _015_
*435 _016_
*436 _017_
*437 _018_
*438 _019_
*439 _020_
*440 _021_
*441 _022_
*442 _023_
*443 _024_
*444 _025_
*445 _026_
*446 _027_
*447 _028_
*448 _029_
*449 _030_
*450 _031_
*451 _032_
*452 _033_
*453 _034_
*454 _035_
*455 _036_
*456 _037_
*457 _038_
*458 _039_
*459 _040_
*460 _041_
*461 _042_
*462 _043_
*463 _044_
*464 _045_
*465 _046_
*466 _047_
*467 _048_
*468 _049_
*469 _050_
*470 _051_
*471 _052_
*472 _053_
*473 _054_
*474 _055_
*475 _056_
*476 _057_
*477 _058_
*478 _059_
*479 _060_
*480 _061_
*481 _062_
*482 _063_
*483 _064_
*484 _065_
*485 _066_
*486 demux_0\.out\[0\]
*487 demux_0\.out\[19\]
*488 demux_0\.out\[1\]
*489 demux_0\.out\[20\]
*490 demux_0\.out\[21\]
*491 demux_0\.out\[22\]
*492 demux_0\.out\[23\]
*493 demux_0\.out\[24\]
*494 demux_0\.out\[2\]
*495 demux_0\.out\[38\]
*496 demux_0\.out\[39\]
*497 demux_0\.out\[3\]
*498 demux_0\.out\[40\]
*499 demux_0\.out\[41\]
*500 demux_0\.out\[42\]
*501 demux_0\.out\[43\]
*502 demux_0\.out\[44\]
*503 demux_0\.out\[45\]
*504 demux_0\.out\[46\]
*505 demux_0\.out\[47\]
*506 demux_0\.out\[48\]
*507 demux_0\.out\[49\]
*508 demux_0\.out\[4\]
*509 demux_0\.out\[50\]
*510 demux_0\.out\[51\]
*511 demux_0\.out\[52\]
*512 demux_0\.out\[53\]
*513 demux_0\.out\[54\]
*514 demux_0\.out\[55\]
*515 demux_0\.out\[56\]
*516 demux_0\.out\[5\]
*517 demux_0\.out\[6\]
*518 demux_0\.out\[7\]
*519 demux_0\.out\[8\]
*520 demux_0\.out\[9\]
*521 mux_0\.drivers\[0\]
*522 mux_0\.drivers\[10\]
*523 mux_0\.drivers\[11\]
*524 mux_0\.drivers\[12\]
*525 mux_0\.drivers\[13\]
*526 mux_0\.drivers\[14\]
*527 mux_0\.drivers\[15\]
*528 mux_0\.drivers\[16\]
*529 mux_0\.drivers\[17\]
*530 mux_0\.drivers\[18\]
*531 mux_0\.drivers\[19\]
*532 mux_0\.drivers\[1\]
*533 mux_0\.drivers\[20\]
*534 mux_0\.drivers\[21\]
*535 mux_0\.drivers\[22\]
*536 mux_0\.drivers\[23\]
*537 mux_0\.drivers\[2\]
*538 mux_0\.drivers\[3\]
*539 mux_0\.drivers\[8\]
*540 mux_0\.drivers\[9\]
*541 _067_
*542 _068_
*543 _069_
*544 _070_
*545 _071_
*546 _072_
*547 _073_
*548 _074_
*549 _075_
*550 _076_
*551 _077_
*552 _078_
*553 _079_
*554 _080_
*555 _081_
*556 _082_
*557 _083_
*558 _084_
*559 _085_
*560 _086_
*561 _087_
*562 _088_
*563 _089_
*564 _090_
*565 _091_
*566 _092_
*567 _093_
*568 _094_
*569 _095_
*570 _096_
*571 _097_
*572 _098_
*573 _099_
*574 _100_
*575 _101_
*576 _102_
*577 _103_
*578 _104_
*579 _105_
*580 _106_
*581 _107_
*582 _108_
*583 _109_
*584 _110_
*585 _111_
*586 _112_
*587 _113_
*588 _114_
*589 _115_
*590 _116_
*591 _117_
*592 _118_
*593 _119_
*594 _120_
*595 _121_
*596 _122_
*597 _123_
*598 _124_
*599 _125_
*600 _126_
*601 _127_
*602 _128_
*603 _129_
*604 _130_
*605 _131_
*606 _132_
*607 _133_
*608 _134_
*609 _135_
*610 _136_
*611 _137_
*612 _138_
*613 _139_
*614 _140_
*615 _141_
*616 _142_
*617 _143_
*618 _144_
*619 _145_
*620 _146_
*621 _147_
*622 _148_
*623 _149_
*624 _150_
*625 _151_
*626 _152_
*627 _153_
*628 _154_
*629 _155_
*630 _156_
*631 _157_
*632 _158_
*633 _159_
*634 _160_
*635 _161_
*636 _162_
*637 _163_
*638 _164_
*639 _165_
*640 _166_
*641 _167_
*642 _168_
*643 _169_
*644 _170_
*645 _171_
*646 _172_
*647 _173_
*648 _174_
*649 _175_
*650 _176_
*651 _177_
*652 _178_
*653 _179_
*654 _180_
*655 _181_
*656 _182_
*657 _183_
*658 _184_
*659 _185_
*660 _186_
*661 _187_
*662 _188_
*663 _189_
*664 _190_
*665 _191_
*666 _192_
*667 _193_
*668 _194_
*669 _195_
*670 _196_
*671 _197_
*672 _198_
*673 _199_
*674 _200_
*675 _201_
*676 _202_
*677 _203_
*678 _204_
*679 _205_
*680 _206_
*681 _207_
*682 _208_
*683 _209_
*684 _210_
*685 _211_
*686 _212_
*687 _213_
*688 _214_
*689 _215_
*690 _216_
*691 _217_
*692 _218_
*693 _219_
*694 _220_
*695 _221_
*696 _222_
*697 _223_
*698 _224_
*699 _225_
*700 _226_
*701 _227_
*702 _228_
*703 _229_
*704 _230_
*705 _231_
*706 _232_
*707 _233_
*708 _234_
*709 _235_
*710 _236_
*711 _237_
*712 _238_
*713 _239_
*714 _240_
*715 _241_
*716 _242_
*717 _243_
*718 _244_
*719 _245_
*720 _246_
*721 _247_
*722 _248_
*723 _249_
*724 _250_
*725 _251_
*726 _252_
*727 _253_
*728 _254_
*729 _255_
*730 _256_
*731 _257_
*732 _258_
*733 _259_
*734 _260_
*735 _261_
*736 _262_
*737 _263_
*738 _264_
*739 _265_
*740 _266_
*741 _267_
*742 _268_
*743 _269_
*744 _270_
*745 _271_
*746 _272_
*747 _273_
*748 _274_
*749 _275_
*750 _276_
*751 _277_
*752 _278_
*753 _279_
*754 _280_
*755 _281_
*756 _282_
*757 _283_
*758 _284_
*759 _285_
*760 _286_
*761 _287_
*762 _288_
*763 _289_
*764 _290_
*765 _291_
*766 _292_
*767 _293_
*768 _294_
*769 _295_
*770 _296_
*771 _297_
*772 _298_
*773 _299_
*774 _300_
*775 _301_
*776 _302_
*777 _303_
*778 _304_
*779 _305_
*780 _306_
*781 _307_
*782 _308_
*783 _309_
*784 _310_
*785 _311_
*786 _312_
*787 _313_
*788 _314_
*789 _315_
*790 _316_
*791 _317_
*792 _318_
*793 _319_
*794 _320_
*795 _321_
*796 _322_
*797 _323_
*798 _324_
*799 _325_
*800 _326_
*801 _327_
*802 _328_
*803 _329_
*804 _330_
*805 _331_
*806 _332_
*807 _333_
*808 _334_
*809 _335_
*810 _336_
*811 _337_
*812 _338_
*813 _339_
*814 _340_
*815 _341_
*816 _342_
*817 _343_
*818 _344_
*819 fpu8_wrap_0
*820 rle1_dec_wrap_0
*821 rle1_enc_wrap_0

*PORTS
io_in[0] I
io_in[10] I
io_in[11] I
io_in[12] I
io_in[13] I
io_in[14] I
io_in[15] I
io_in[16] I
io_in[17] I
io_in[18] I
io_in[19] I
io_in[1] I
io_in[20] I
io_in[21] I
io_in[22] I
io_in[23] I
io_in[24] I
io_in[25] I
io_in[26] I
io_in[27] I
io_in[28] I
io_in[29] I
io_in[2] I
io_in[30] I
io_in[31] I
io_in[32] I
io_in[33] I
io_in[34] I
io_in[35] I
io_in[36] I
io_in[37] I
io_in[3] I
io_in[4] I
io_in[5] I
io_in[6] I
io_in[7] I
io_in[8] I
io_in[9] I
io_oeb[0] O
io_oeb[10] O
io_oeb[11] O
io_oeb[12] O
io_oeb[13] O
io_oeb[14] O
io_oeb[15] O
io_oeb[16] O
io_oeb[17] O
io_oeb[18] O
io_oeb[19] O
io_oeb[1] O
io_oeb[20] O
io_oeb[21] O
io_oeb[22] O
io_oeb[23] O
io_oeb[24] O
io_oeb[25] O
io_oeb[26] O
io_oeb[27] O
io_oeb[28] O
io_oeb[29] O
io_oeb[2] O
io_oeb[30] O
io_oeb[31] O
io_oeb[32] O
io_oeb[33] O
io_oeb[34] O
io_oeb[35] O
io_oeb[36] O
io_oeb[37] O
io_oeb[3] O
io_oeb[4] O
io_oeb[5] O
io_oeb[6] O
io_oeb[7] O
io_oeb[8] O
io_oeb[9] O
io_out[0] O
io_out[10] O
io_out[11] O
io_out[12] O
io_out[13] O
io_out[14] O
io_out[15] O
io_out[16] O
io_out[17] O
io_out[18] O
io_out[19] O
io_out[1] O
io_out[20] O
io_out[21] O
io_out[22] O
io_out[23] O
io_out[24] O
io_out[25] O
io_out[26] O
io_out[27] O
io_out[28] O
io_out[29] O
io_out[2] O
io_out[30] O
io_out[31] O
io_out[32] O
io_out[33] O
io_out[34] O
io_out[35] O
io_out[36] O
io_out[37] O
io_out[3] O
io_out[4] O
io_out[5] O
io_out[6] O
io_out[7] O
io_out[8] O
io_out[9] O
la_data_in[0] I
la_data_in[10] I
la_data_in[11] I
la_data_in[12] I
la_data_in[13] I
la_data_in[14] I
la_data_in[15] I
la_data_in[16] I
la_data_in[17] I
la_data_in[18] I
la_data_in[19] I
la_data_in[1] I
la_data_in[20] I
la_data_in[21] I
la_data_in[22] I
la_data_in[23] I
la_data_in[24] I
la_data_in[25] I
la_data_in[26] I
la_data_in[27] I
la_data_in[28] I
la_data_in[29] I
la_data_in[2] I
la_data_in[30] I
la_data_in[31] I
la_data_in[32] I
la_data_in[33] I
la_data_in[34] I
la_data_in[35] I
la_data_in[36] I
la_data_in[37] I
la_data_in[38] I
la_data_in[39] I
la_data_in[3] I
la_data_in[40] I
la_data_in[41] I
la_data_in[42] I
la_data_in[43] I
la_data_in[44] I
la_data_in[45] I
la_data_in[46] I
la_data_in[47] I
la_data_in[48] I
la_data_in[49] I
la_data_in[4] I
la_data_in[50] I
la_data_in[51] I
la_data_in[52] I
la_data_in[53] I
la_data_in[54] I
la_data_in[55] I
la_data_in[56] I
la_data_in[57] I
la_data_in[58] I
la_data_in[59] I
la_data_in[5] I
la_data_in[60] I
la_data_in[61] I
la_data_in[62] I
la_data_in[63] I
la_data_in[6] I
la_data_in[7] I
la_data_in[8] I
la_data_in[9] I
la_data_out[0] O
la_data_out[10] O
la_data_out[11] O
la_data_out[12] O
la_data_out[13] O
la_data_out[14] O
la_data_out[15] O
la_data_out[16] O
la_data_out[17] O
la_data_out[18] O
la_data_out[19] O
la_data_out[1] O
la_data_out[20] O
la_data_out[21] O
la_data_out[22] O
la_data_out[23] O
la_data_out[24] O
la_data_out[25] O
la_data_out[26] O
la_data_out[27] O
la_data_out[28] O
la_data_out[29] O
la_data_out[2] O
la_data_out[30] O
la_data_out[31] O
la_data_out[32] O
la_data_out[33] O
la_data_out[34] O
la_data_out[35] O
la_data_out[36] O
la_data_out[37] O
la_data_out[38] O
la_data_out[39] O
la_data_out[3] O
la_data_out[40] O
la_data_out[41] O
la_data_out[42] O
la_data_out[43] O
la_data_out[44] O
la_data_out[45] O
la_data_out[46] O
la_data_out[47] O
la_data_out[48] O
la_data_out[49] O
la_data_out[4] O
la_data_out[50] O
la_data_out[51] O
la_data_out[52] O
la_data_out[53] O
la_data_out[54] O
la_data_out[55] O
la_data_out[56] O
la_data_out[57] O
la_data_out[58] O
la_data_out[59] O
la_data_out[5] O
la_data_out[60] O
la_data_out[61] O
la_data_out[62] O
la_data_out[63] O
la_data_out[6] O
la_data_out[7] O
la_data_out[8] O
la_data_out[9] O
la_oenb[0] I
la_oenb[10] I
la_oenb[11] I
la_oenb[12] I
la_oenb[13] I
la_oenb[14] I
la_oenb[15] I
la_oenb[16] I
la_oenb[17] I
la_oenb[18] I
la_oenb[19] I
la_oenb[1] I
la_oenb[20] I
la_oenb[21] I
la_oenb[22] I
la_oenb[23] I
la_oenb[24] I
la_oenb[25] I
la_oenb[26] I
la_oenb[27] I
la_oenb[28] I
la_oenb[29] I
la_oenb[2] I
la_oenb[30] I
la_oenb[31] I
la_oenb[32] I
la_oenb[33] I
la_oenb[34] I
la_oenb[35] I
la_oenb[36] I
la_oenb[37] I
la_oenb[38] I
la_oenb[39] I
la_oenb[3] I
la_oenb[40] I
la_oenb[41] I
la_oenb[42] I
la_oenb[43] I
la_oenb[44] I
la_oenb[45] I
la_oenb[46] I
la_oenb[47] I
la_oenb[48] I
la_oenb[49] I
la_oenb[4] I
la_oenb[50] I
la_oenb[51] I
la_oenb[52] I
la_oenb[53] I
la_oenb[54] I
la_oenb[55] I
la_oenb[56] I
la_oenb[57] I
la_oenb[58] I
la_oenb[59] I
la_oenb[5] I
la_oenb[60] I
la_oenb[61] I
la_oenb[62] I
la_oenb[63] I
la_oenb[6] I
la_oenb[7] I
la_oenb[8] I
la_oenb[9] I
user_clock2 I
user_irq[0] O
user_irq[1] O
user_irq[2] O
wb_clk_i I
wb_rst_i I
wbs_ack_o O
wbs_adr_i[0] I
wbs_adr_i[10] I
wbs_adr_i[11] I
wbs_adr_i[12] I
wbs_adr_i[13] I
wbs_adr_i[14] I
wbs_adr_i[15] I
wbs_adr_i[16] I
wbs_adr_i[17] I
wbs_adr_i[18] I
wbs_adr_i[19] I
wbs_adr_i[1] I
wbs_adr_i[20] I
wbs_adr_i[21] I
wbs_adr_i[22] I
wbs_adr_i[23] I
wbs_adr_i[24] I
wbs_adr_i[25] I
wbs_adr_i[26] I
wbs_adr_i[27] I
wbs_adr_i[28] I
wbs_adr_i[29] I
wbs_adr_i[2] I
wbs_adr_i[30] I
wbs_adr_i[31] I
wbs_adr_i[3] I
wbs_adr_i[4] I
wbs_adr_i[5] I
wbs_adr_i[6] I
wbs_adr_i[7] I
wbs_adr_i[8] I
wbs_adr_i[9] I
wbs_cyc_i I
wbs_dat_i[0] I
wbs_dat_i[10] I
wbs_dat_i[11] I
wbs_dat_i[12] I
wbs_dat_i[13] I
wbs_dat_i[14] I
wbs_dat_i[15] I
wbs_dat_i[16] I
wbs_dat_i[17] I
wbs_dat_i[18] I
wbs_dat_i[19] I
wbs_dat_i[1] I
wbs_dat_i[20] I
wbs_dat_i[21] I
wbs_dat_i[22] I
wbs_dat_i[23] I
wbs_dat_i[24] I
wbs_dat_i[25] I
wbs_dat_i[26] I
wbs_dat_i[27] I
wbs_dat_i[28] I
wbs_dat_i[29] I
wbs_dat_i[2] I
wbs_dat_i[30] I
wbs_dat_i[31] I
wbs_dat_i[3] I
wbs_dat_i[4] I
wbs_dat_i[5] I
wbs_dat_i[6] I
wbs_dat_i[7] I
wbs_dat_i[8] I
wbs_dat_i[9] I
wbs_dat_o[0] O
wbs_dat_o[10] O
wbs_dat_o[11] O
wbs_dat_o[12] O
wbs_dat_o[13] O
wbs_dat_o[14] O
wbs_dat_o[15] O
wbs_dat_o[16] O
wbs_dat_o[17] O
wbs_dat_o[18] O
wbs_dat_o[19] O
wbs_dat_o[1] O
wbs_dat_o[20] O
wbs_dat_o[21] O
wbs_dat_o[22] O
wbs_dat_o[23] O
wbs_dat_o[24] O
wbs_dat_o[25] O
wbs_dat_o[26] O
wbs_dat_o[27] O
wbs_dat_o[28] O
wbs_dat_o[29] O
wbs_dat_o[2] O
wbs_dat_o[30] O
wbs_dat_o[31] O
wbs_dat_o[3] O
wbs_dat_o[4] O
wbs_dat_o[5] O
wbs_dat_o[6] O
wbs_dat_o[7] O
wbs_dat_o[8] O
wbs_dat_o[9] O
wbs_sel_i[0] I
wbs_sel_i[1] I
wbs_sel_i[2] I
wbs_sel_i[3] I
wbs_stb_i I
wbs_we_i I

*D_NET *2 0.463767
*CONN
*P io_in[10] I
*I *588:A1 I *D gf180mcu_fd_sc_mcu7t5v0__and2_1
*I *548:A1 I *D gf180mcu_fd_sc_mcu7t5v0__and2_1
*I *602:A1 I *D gf180mcu_fd_sc_mcu7t5v0__and2_1
*CAP
1 io_in[10] 0.00952861
2 *588:A1 0
3 *548:A1 0
4 *602:A1 0
5 *2:41 0.0386456
6 *2:39 0.0386456
7 *2:30 0.0808212
8 *2:28 0.0808212
9 *2:26 0.0179398
10 *2:24 0.0179398
11 *2:17 0.0226731
12 *2:15 0.0228299
13 *2:11 0.0188725
14 *2:9 0.0193254
15 *2:5 0.0101383
16 *2:30 *479:97 0.0468062
17 *2:41 la_data_out[59] 0.0387797
*RES
1 io_in[10] *2:5 81.38 
2 *2:5 *2:9 5.512 
3 *2:9 *2:11 160.784 
4 *2:11 *2:15 5.644 
5 *2:15 *2:17 189.592 
6 *2:17 *602:A1 4.5 
7 *2:11 *2:24 4.5 
8 *2:24 *2:26 149.864 
9 *2:26 *2:28 4.5 
10 *2:28 *2:30 812.76 
11 *2:30 *548:A1 9 
12 *2:5 *2:39 4.5 
13 *2:39 *2:41 422.552 
14 *2:41 *588:A1 4.5 
*END

*D_NET *3 0.653481
*CONN
*P io_in[11] I
*I *550:A1 I *D gf180mcu_fd_sc_mcu7t5v0__and2_1
*I *604:A1 I *D gf180mcu_fd_sc_mcu7t5v0__and2_1
*I *590:A1 I *D gf180mcu_fd_sc_mcu7t5v0__and2_1
*CAP
1 io_in[11] 0.0297246
2 *550:A1 0
3 *604:A1 0
4 *590:A1 0
5 *3:41 0.0297762
6 *3:39 0.0297762
7 *3:37 0.00649321
8 *3:30 0.00649321
9 *3:28 0.0263193
10 *3:26 0.0263193
11 *3:24 0.0131638
12 *3:17 0.0390702
13 *3:15 0.0394312
14 *3:7 0.0135249
15 *3:5 0.0297246
16 *3:15 *433:51 0.00099396
17 *3:17 *433:21 0.0135059
18 *3:17 *433:25 0.00346216
19 *3:17 *433:51 0.0398981
20 *3:24 *433:51 0.0630085
21 *3:24 *433:64 0.0204023
22 *3:28 *395:8 0
23 *3:28 *441:59 0.106752
24 *3:28 *445:8 0.0287037
25 *3:37 *604:A2 1.07369e-05
26 *3:41 *242:8 0.0213778
27 *3:41 *522:13 0.0655494
*RES
1 io_in[11] *3:5 255.892 
2 *3:5 *3:7 4.5 
3 *3:7 *3:15 12.536 
4 *3:15 *3:17 495.352 
5 *3:17 *590:A1 4.5 
6 *3:7 *3:24 214.344 
7 *3:24 *3:26 4.5 
8 *3:26 *3:28 435.864 
9 *3:28 *3:30 4.5 
10 *3:30 *604:A1 4.5 
11 *3:30 *3:37 52.52 
12 *3:37 *3:39 4.5 
13 *3:39 *3:41 383.448 
14 *3:41 *550:A1 9 
*END

*D_NET *4 0.349278
*CONN
*P io_in[12] I
*I *592:A1 I *D gf180mcu_fd_sc_mcu7t5v0__and2_1
*I *552:A1 I *D gf180mcu_fd_sc_mcu7t5v0__and2_1
*I *606:A1 I *D gf180mcu_fd_sc_mcu7t5v0__and2_1
*CAP
1 io_in[12] 0.016809
2 *592:A1 0
3 *552:A1 0
4 *606:A1 0
5 *4:47 0.00842605
6 *4:33 0.0122883
7 *4:31 0.0129591
8 *4:25 0.00486326
9 *4:23 0.00445766
10 *4:19 0.000265284
11 *4:17 0.0305886
12 *4:15 0.0305886
13 *4:13 0.00592508
14 *4:7 0.0143511
15 *4:5 0.016809
16 *4:17 io_out[11] 0.0822473
17 *4:23 *466:16 0
18 *4:23 *479:41 0.000432667
19 *4:25 *466:16 0.00377613
20 *4:25 *479:41 0.00482407
21 *4:31 *454:32 0.000592773
22 *4:31 *456:85 4.63426e-05
23 *4:31 *466:16 0.000138942
24 *4:31 *475:12 7.11514e-05
25 *4:31 *479:41 1.12327e-05
26 *4:31 *479:49 0.000320177
27 *4:33 *100:8 0.016747
28 *4:33 *441:40 0.0608525
29 *4:33 *441:53 0.0155649
30 *4:47 *8:5 0.00532159
*RES
1 io_in[12] *4:5 144.196 
2 *4:5 *4:7 4.5 
3 *4:7 *4:13 49.4 
4 *4:13 *4:15 4.5 
5 *4:15 *4:17 480.584 
6 *4:17 *4:19 4.5 
7 *4:19 *4:23 3.224 
8 *4:23 *4:25 65.624 
9 *4:25 *4:31 12.508 
10 *4:31 *4:33 259.896 
11 *4:33 *606:A1 9 
12 *4:19 *552:A1 4.5 
13 *4:7 *4:47 88.296 
14 *4:47 *592:A1 4.5 
*END

*D_NET *5 0.496592
*CONN
*P io_in[13] I
*I *608:A1 I *D gf180mcu_fd_sc_mcu7t5v0__and2_1
*I *554:A1 I *D gf180mcu_fd_sc_mcu7t5v0__and2_1
*I *594:A1 I *D gf180mcu_fd_sc_mcu7t5v0__and2_1
*CAP
1 io_in[13] 0.00119088
2 *608:A1 0
3 *554:A1 0
4 *594:A1 0
5 *5:47 0.042305
6 *5:45 0.042305
7 *5:31 0.00323634
8 *5:29 0.00323634
9 *5:27 0.0403531
10 *5:25 0.0428444
11 *5:19 0.0378372
12 *5:17 0.0379927
13 *5:13 0.0190087
14 *5:11 0.0163619
15 *5:9 0.0126505
16 *5:7 0.0138414
17 *5:9 *479:151 0.0822651
18 *5:19 *309:8 0.00608568
19 *5:25 *309:8 0
20 *5:25 *479:119 0.000199998
21 *5:27 *485:6 0.0220074
22 *5:31 *433:37 0.0452811
23 *5:31 *476:8 0.00817182
24 *5:31 *538:13 0.000872534
25 *5:47 *441:93 0.0185449
*RES
1 io_in[13] *5:7 14.12 
2 *5:7 *5:9 210.808 
3 *5:9 *5:11 4.5 
4 *5:11 *5:13 140.92 
5 *5:13 *5:17 24.232 
6 *5:17 *5:19 327.704 
7 *5:19 *5:25 26.028 
8 *5:25 *5:27 410.696 
9 *5:27 *5:29 4.5 
10 *5:29 *5:31 114.504 
11 *5:31 *594:A1 9 
12 *5:25 *554:A1 4.5 
13 *5:13 *5:45 4.5 
14 *5:45 *5:47 400.712 
15 *5:47 *608:A1 4.5 
*END

*D_NET *6 0.523089
*CONN
*P io_in[14] I
*I *610:A1 I *D gf180mcu_fd_sc_mcu7t5v0__and2_1
*I *556:A1 I *D gf180mcu_fd_sc_mcu7t5v0__and2_1
*CAP
1 io_in[14] 0.0618947
2 *610:A1 0.00195775
3 *556:A1 0
4 *6:17 0.0438694
5 *6:15 0.0438694
6 *6:13 0.114613
7 *6:11 0.116926
8 *6:7 0.00427024
9 *6:5 0.0618947
10 *610:A1 *610:A2 0.0042776
11 *6:11 *610:A2 0.00110677
12 *6:11 *448:6 0.000953286
13 *6:13 *448:6 0
14 *6:17 *419:8 0.0571349
15 *6:17 *479:75 0.0103212
16 *6:17 *503:10 0
*RES
1 io_in[14] *6:5 423.54 
2 *6:5 *6:7 4.5 
3 *6:7 *6:11 25.064 
4 *6:11 *6:13 945.36 
5 *6:13 *6:15 4.5 
6 *6:15 *6:17 430.248 
7 *6:17 *556:A1 9 
8 *6:7 *610:A1 31.228 
*END

*D_NET *7 0.679851
*CONN
*P io_in[15] I
*I *612:A1 I *D gf180mcu_fd_sc_mcu7t5v0__and2_1
*I *558:A1 I *D gf180mcu_fd_sc_mcu7t5v0__and2_1
*CAP
1 io_in[15] 0.0262366
2 *612:A1 0
3 *558:A1 0
4 *7:21 0.068904
5 *7:19 0.068904
6 *7:17 0.0461262
7 *7:15 0.0509958
8 *7:11 0.00486964
9 *7:9 0.00811979
10 *7:7 0.00811979
11 *7:5 0.0262366
12 *7:17 la_data_out[58] 0.27661
13 *7:21 *558:A2 6.67724e-05
14 *7:21 *420:8 0.0946617
*RES
1 io_in[15] *7:5 220.324 
2 *7:5 *7:7 4.5 
3 *7:7 *7:9 71.24 
4 *7:9 *7:11 4.5 
5 *7:11 *7:15 40.872 
6 *7:15 *7:17 737.152 
7 *7:17 *7:19 4.5 
8 *7:19 *7:21 682.552 
9 *7:21 *558:A1 9 
10 *7:11 *612:A1 4.5 
*END

*D_NET *8 0.270875
*CONN
*P io_in[16] I
*I *614:A1 I *D gf180mcu_fd_sc_mcu7t5v0__and2_1
*I *560:A1 I *D gf180mcu_fd_sc_mcu7t5v0__and2_1
*CAP
1 io_in[16] 0.021085
2 *614:A1 0
3 *560:A1 0
4 *8:26 0.0463941
5 *8:24 0.0463941
6 *8:15 0.0216952
7 *8:13 0.0221457
8 *8:9 0.0341222
9 *8:7 0.0336717
10 *8:5 0.021085
11 *8:15 *479:37 0.00128578
12 *8:26 *81:6 0.00977964
13 *8:26 *441:83 0.00789464
14 *4:47 *8:5 0.00532159
*RES
1 io_in[16] *8:5 193.7 
2 *8:5 *8:7 4.5 
3 *8:7 *8:9 292.24 
4 *8:9 *8:13 3.848 
5 *8:13 *8:15 190.008 
6 *8:15 *560:A1 9 
7 *8:13 *8:24 4.5 
8 *8:24 *8:26 439.608 
9 *8:26 *614:A1 4.5 
*END

*D_NET *9 0.273932
*CONN
*P io_in[17] I
*I *616:A1 I *D gf180mcu_fd_sc_mcu7t5v0__and2_1
*I *562:A1 I *D gf180mcu_fd_sc_mcu7t5v0__and2_1
*CAP
1 io_in[17] 0.00978776
2 *616:A1 0
3 *562:A1 0
4 *9:30 0.038695
5 *9:28 0.038695
6 *9:26 0.0118689
7 *9:24 0.0119992
8 *9:11 0.00391334
9 *9:9 0.00411624
10 *9:5 0.00986039
11 *9:5 *461:6 0.0343231
12 *9:9 *479:10 0.000235891
13 *9:11 *479:10 0.0268157
14 *9:24 *461:6 0.000156491
15 *9:26 *478:139 0
16 *9:26 *479:10 0.0116424
17 *9:30 *50:6 0
18 *9:30 *441:113 0.0670745
19 *9:30 *441:128 0.00404687
20 *9:30 *441:132 0.000701113
*RES
1 io_in[17] *9:5 124.02 
2 *9:5 *9:9 5.228 
3 *9:9 *9:11 67.288 
4 *9:11 *562:A1 9 
5 *9:9 *9:24 10.144 
6 *9:24 *9:26 143.208 
7 *9:26 *9:28 4.5 
8 *9:28 *9:30 507.416 
9 *9:30 *616:A1 4.5 
*END

*D_NET *10 0.257259
*CONN
*P io_in[18] I
*I *564:A1 I *D gf180mcu_fd_sc_mcu7t5v0__and2_1
*CAP
1 io_in[18] 0.0886734
2 *564:A1 0
3 *10:9 0.00218505
4 *10:7 0.00218505
5 *10:5 0.0886734
6 *10:5 la_data_out[30] 0.014988
7 *10:5 *73:6 0
8 *10:9 *190:8 0.0284743
9 *10:9 *423:10 0.00490432
10 *10:9 *423:12 0.0264743
11 *10:9 *436:8 0
12 *10:9 *478:73 0.000701122
*RES
1 io_in[18] *10:5 778.18 
2 *10:5 *10:7 4.5 
3 *10:7 *10:9 168.792 
4 *10:9 *564:A1 9 
*END

*D_NET *11 0.160621
*CONN
*P io_in[19] I
*I *566:A1 I *D gf180mcu_fd_sc_mcu7t5v0__and2_1
*CAP
1 io_in[19] 0.0171278
2 *566:A1 0
3 *11:9 0.0356648
4 *11:7 0.0356648
5 *11:5 0.0171278
6 *11:9 *478:117 0.0550355
7 *11:9 *529:13 0
*RES
1 io_in[19] *11:5 140.452 
2 *11:5 *11:7 4.5 
3 *11:7 *11:9 374.92 
4 *11:9 *566:A1 9 
*END

*D_NET *13 0.258513
*CONN
*P io_in[20] I
*I *568:A1 I *D gf180mcu_fd_sc_mcu7t5v0__and2_1
*CAP
1 io_in[20] 0.0664785
2 *568:A1 0
3 *13:9 0.0147836
4 *13:7 0.0147836
5 *13:5 0.0664785
6 *13:5 *545:I 0
7 *13:9 *425:8 0.0959888
*RES
1 io_in[20] *13:5 548.132 
2 *13:5 *13:7 4.5 
3 *13:7 *13:9 243.048 
4 *13:9 *568:A1 9 
*END

*D_NET *14 0.0380967
*CONN
*P io_in[21] I
*I *570:A1 I *D gf180mcu_fd_sc_mcu7t5v0__and2_1
*CAP
1 io_in[21] 0.0154634
2 *570:A1 0.00183317
3 *14:5 0.0172966
4 *570:A1 *478:130 0.0032947
5 *570:A1 *478:139 0.000208806
6 *570:A1 *479:18 0
7 *14:5 wbs_dat_o[27] 0
*RES
1 io_in[21] *14:5 126.932 
2 *14:5 *570:A1 32.324 
*END

*D_NET *15 0.305217
*CONN
*P io_in[22] I
*I *572:A1 I *D gf180mcu_fd_sc_mcu7t5v0__and2_1
*CAP
1 io_in[22] 0.066436
2 *572:A1 0
3 *15:9 0.0571992
4 *15:7 0.0571992
5 *15:5 0.066436
6 *15:9 *478:20 0
7 *15:9 *478:59 0
8 *15:9 *478:91 0.0579466
*RES
1 io_in[22] *15:5 552.292 
2 *15:5 *15:7 4.5 
3 *15:7 *15:9 478.296 
4 *15:9 *572:A1 9 
*END

*D_NET *16 0.217563
*CONN
*P io_in[23] I
*I *574:A1 I *D gf180mcu_fd_sc_mcu7t5v0__and2_1
*CAP
1 io_in[23] 0.101392
2 *574:A1 0
3 *16:9 0.00738906
4 *16:7 0.00738906
5 *16:5 0.101392
*RES
1 io_in[23] *16:5 845.156 
2 *16:5 *16:7 4.5 
3 *16:7 *16:9 61.672 
4 *16:9 *574:A1 9 
*END

*D_NET *17 0.340176
*CONN
*P io_in[24] I
*I *576:A1 I *D gf180mcu_fd_sc_mcu7t5v0__and2_1
*CAP
1 io_in[24] 0.00122499
2 *576:A1 0
3 *17:13 0.0153302
4 *17:11 0.0153302
5 *17:9 0.083775
6 *17:7 0.085
7 *17:9 *59:12 0.139233
8 *17:9 *64:12 0
9 *17:9 *100:12 0
10 *17:13 *576:A2 0.000208806
11 *17:13 *429:10 7.42486e-05
*RES
1 io_in[24] *17:7 14.744 
2 *17:7 *17:9 745.992 
3 *17:9 *17:11 4.5 
4 *17:11 *17:13 129.896 
5 *17:13 *576:A1 9 
*END

*D_NET *18 0.283271
*CONN
*P io_in[25] I
*I *578:A1 I *D gf180mcu_fd_sc_mcu7t5v0__and2_1
*CAP
1 io_in[25] 0.00178749
2 *578:A1 0
3 *18:13 0.0250746
4 *18:11 0.0250746
5 *18:9 0.0286522
6 *18:7 0.0304397
7 *18:9 *55:12 0.00854774
8 *18:9 *56:12 0.163495
9 *18:13 *478:22 0.000199998
*RES
1 io_in[25] *18:7 18.696 
2 *18:7 *18:9 471.224 
3 *18:9 *18:11 4.5 
4 *18:11 *18:13 213.304 
5 *18:13 *578:A1 9 
*END

*D_NET *19 0.66664
*CONN
*P io_in[26] I
*I *580:A1 I *D gf180mcu_fd_sc_mcu7t5v0__and2_1
*CAP
1 io_in[26] 0.0017414
2 *580:A1 0
3 *19:13 0.0594538
4 *19:11 0.0594538
5 *19:9 0.0304589
6 *19:7 0.0322003
7 *19:9 *53:6 0.212151
8 *19:9 *55:12 0.239152
9 *19:9 *56:12 0.00375677
10 *19:13 *431:8 0.0282721
*RES
1 io_in[26] *19:7 18.072 
2 *19:7 *19:9 839.384 
3 *19:9 *19:11 4.5 
4 *19:11 *19:13 536.744 
5 *19:13 *580:A1 9 
*END

*D_NET *34 0.568855
*CONN
*P io_in[5] I
*I *583:A2 I *D gf180mcu_fd_sc_mcu7t5v0__nor3_1
*I *541:I I *D gf180mcu_fd_sc_mcu7t5v0__clkinv_1
*I *621:A2 I *D gf180mcu_fd_sc_mcu7t5v0__or3_1
*I *596:A2 I *D gf180mcu_fd_sc_mcu7t5v0__nor2_1
*CAP
1 io_in[5] 0.00116827
2 *583:A2 0
3 *541:I 0
4 *621:A2 0
5 *596:A2 0.000535961
6 *34:43 0.0188052
7 *34:41 0.0188052
8 *34:39 0.0385418
9 *34:32 0.0963818
10 *34:17 0.058376
11 *34:15 0.0571139
12 *34:13 0.0805409
13 *34:11 0.023427
14 *34:9 0.0227286
15 *34:7 0.0238969
16 *596:A2 *35:21 0.00022052
17 *34:9 *99:12 0.0383717
18 *34:9 *112:12 0.0649907
19 *34:32 *36:45 1.71326e-05
20 *34:32 *419:12 0
21 *34:32 *455:8 2.39523e-06
22 *34:39 *36:45 0.0249313
23 *34:43 *184:8 0
*RES
1 io_in[5] *34:7 13.912 
2 *34:7 *34:9 322.504 
3 *34:9 *34:11 4.5 