*SPEF "ieee 1481-1999"
*DESIGN "user_project_wrapper"
*DATE "11:11:11 Fri 11 11, 1111"
*VENDOR "OpenRCX"
*PROGRAM "Parallel Extraction"
*VERSION "1.0"
*DESIGN_FLOW "NAME_SCOPE LOCAL" "PIN_CAP NONE"
*DIVIDER /
*DELIMITER :
*BUS_DELIMITER []
*T_UNIT 1 NS
*C_UNIT 1 PF
*R_UNIT 1 OHM
*L_UNIT 1 HENRY

*NAME_MAP
*1 io_in[0]
*2 io_in[10]
*3 io_in[11]
*4 io_in[12]
*5 io_in[13]
*6 io_in[14]
*7 io_in[15]
*8 io_in[16]
*9 io_in[17]
*10 io_in[18]
*11 io_in[19]
*12 io_in[1]
*13 io_in[20]
*14 io_in[21]
*15 io_in[22]
*16 io_in[23]
*17 io_in[24]
*18 io_in[25]
*19 io_in[26]
*20 io_in[27]
*21 io_in[28]
*22 io_in[29]
*23 io_in[2]
*24 io_in[30]
*25 io_in[31]
*26 io_in[32]
*27 io_in[33]
*28 io_in[34]
*29 io_in[35]
*30 io_in[36]
*31 io_in[37]
*32 io_in[3]
*33 io_in[4]
*34 io_in[5]
*35 io_in[6]
*36 io_in[7]
*37 io_in[8]
*38 io_in[9]
*39 io_oeb[0]
*40 io_oeb[10]
*41 io_oeb[11]
*42 io_oeb[12]
*43 io_oeb[13]
*44 io_oeb[14]
*45 io_oeb[15]
*46 io_oeb[16]
*47 io_oeb[17]
*48 io_oeb[18]
*49 io_oeb[19]
*50 io_oeb[1]
*51 io_oeb[20]
*52 io_oeb[21]
*53 io_oeb[22]
*54 io_oeb[23]
*55 io_oeb[24]
*56 io_oeb[25]
*57 io_oeb[26]
*58 io_oeb[27]
*59 io_oeb[28]
*60 io_oeb[29]
*61 io_oeb[2]
*62 io_oeb[30]
*63 io_oeb[31]
*64 io_oeb[32]
*65 io_oeb[33]
*66 io_oeb[34]
*67 io_oeb[35]
*68 io_oeb[36]
*69 io_oeb[37]
*70 io_oeb[3]
*71 io_oeb[4]
*72 io_oeb[5]
*73 io_oeb[6]
*74 io_oeb[7]
*75 io_oeb[8]
*76 io_oeb[9]
*77 io_out[0]
*78 io_out[10]
*79 io_out[11]
*80 io_out[12]
*81 io_out[13]
*82 io_out[14]
*83 io_out[15]
*84 io_out[16]
*85 io_out[17]
*86 io_out[18]
*87 io_out[19]
*88 io_out[1]
*89 io_out[20]
*90 io_out[21]
*91 io_out[22]
*92 io_out[23]
*93 io_out[24]
*94 io_out[25]
*95 io_out[26]
*96 io_out[27]
*97 io_out[28]
*98 io_out[29]
*99 io_out[2]
*100 io_out[30]
*101 io_out[31]
*102 io_out[32]
*103 io_out[33]
*104 io_out[34]
*105 io_out[35]
*106 io_out[36]
*107 io_out[37]
*108 io_out[3]
*109 io_out[4]
*110 io_out[5]
*111 io_out[6]
*112 io_out[7]
*113 io_out[8]
*114 io_out[9]
*115 la_data_in[0]
*116 la_data_in[10]
*117 la_data_in[11]
*118 la_data_in[12]
*119 la_data_in[13]
*120 la_data_in[14]
*121 la_data_in[15]
*122 la_data_in[16]
*123 la_data_in[17]
*124 la_data_in[18]
*125 la_data_in[19]
*126 la_data_in[1]
*127 la_data_in[20]
*128 la_data_in[21]
*129 la_data_in[22]
*130 la_data_in[23]
*131 la_data_in[24]
*132 la_data_in[25]
*133 la_data_in[26]
*134 la_data_in[27]
*135 la_data_in[28]
*136 la_data_in[29]
*137 la_data_in[2]
*138 la_data_in[30]
*139 la_data_in[31]
*140 la_data_in[32]
*141 la_data_in[33]
*142 la_data_in[34]
*143 la_data_in[35]
*144 la_data_in[36]
*145 la_data_in[37]
*146 la_data_in[38]
*147 la_data_in[39]
*148 la_data_in[3]
*149 la_data_in[40]
*150 la_data_in[41]
*151 la_data_in[42]
*152 la_data_in[43]
*153 la_data_in[44]
*154 la_data_in[45]
*155 la_data_in[46]
*156 la_data_in[47]
*157 la_data_in[48]
*158 la_data_in[49]
*159 la_data_in[4]
*160 la_data_in[50]
*161 la_data_in[51]
*162 la_data_in[52]
*163 la_data_in[53]
*164 la_data_in[54]
*165 la_data_in[55]
*166 la_data_in[56]
*167 la_data_in[57]
*168 la_data_in[58]
*169 la_data_in[59]
*170 la_data_in[5]
*171 la_data_in[60]
*172 la_data_in[61]
*173 la_data_in[62]
*174 la_data_in[63]
*175 la_data_in[6]
*176 la_data_in[7]
*177 la_data_in[8]
*178 la_data_in[9]
*179 la_data_out[0]
*180 la_data_out[10]
*181 la_data_out[11]
*182 la_data_out[12]
*183 la_data_out[13]
*184 la_data_out[14]
*185 la_data_out[15]
*186 la_data_out[16]
*187 la_data_out[17]
*188 la_data_out[18]
*189 la_data_out[19]
*190 la_data_out[1]
*191 la_data_out[20]
*192 la_data_out[21]
*193 la_data_out[22]
*194 la_data_out[23]
*195 la_data_out[24]
*196 la_data_out[25]
*197 la_data_out[26]
*198 la_data_out[27]
*199 la_data_out[28]
*200 la_data_out[29]
*201 la_data_out[2]
*202 la_data_out[30]
*203 la_data_out[31]
*204 la_data_out[32]
*205 la_data_out[33]
*206 la_data_out[34]
*207 la_data_out[35]
*208 la_data_out[36]
*209 la_data_out[37]
*210 la_data_out[38]
*211 la_data_out[39]
*212 la_data_out[3]
*213 la_data_out[40]
*214 la_data_out[41]
*215 la_data_out[42]
*216 la_data_out[43]
*217 la_data_out[44]
*218 la_data_out[45]
*219 la_data_out[46]
*220 la_data_out[47]
*221 la_data_out[48]
*222 la_data_out[49]
*223 la_data_out[4]
*224 la_data_out[50]
*225 la_data_out[51]
*226 la_data_out[52]
*227 la_data_out[53]
*228 la_data_out[54]
*229 la_data_out[55]
*230 la_data_out[56]
*231 la_data_out[57]
*232 la_data_out[58]
*233 la_data_out[59]
*234 la_data_out[5]
*235 la_data_out[60]
*236 la_data_out[61]
*237 la_data_out[62]
*238 la_data_out[63]
*239 la_data_out[6]
*240 la_data_out[7]
*241 la_data_out[8]
*242 la_data_out[9]
*243 la_oenb[0]
*244 la_oenb[10]
*245 la_oenb[11]
*246 la_oenb[12]
*247 la_oenb[13]
*248 la_oenb[14]
*249 la_oenb[15]
*250 la_oenb[16]
*251 la_oenb[17]
*252 la_oenb[18]
*253 la_oenb[19]
*254 la_oenb[1]
*255 la_oenb[20]
*256 la_oenb[21]
*257 la_oenb[22]
*258 la_oenb[23]
*259 la_oenb[24]
*260 la_oenb[25]
*261 la_oenb[26]
*262 la_oenb[27]
*263 la_oenb[28]
*264 la_oenb[29]
*265 la_oenb[2]
*266 la_oenb[30]
*267 la_oenb[31]
*268 la_oenb[32]
*269 la_oenb[33]
*270 la_oenb[34]
*271 la_oenb[35]
*272 la_oenb[36]
*273 la_oenb[37]
*274 la_oenb[38]
*275 la_oenb[39]
*276 la_oenb[3]
*277 la_oenb[40]
*278 la_oenb[41]
*279 la_oenb[42]
*280 la_oenb[43]
*281 la_oenb[44]
*282 la_oenb[45]
*283 la_oenb[46]
*284 la_oenb[47]
*285 la_oenb[48]
*286 la_oenb[49]
*287 la_oenb[4]
*288 la_oenb[50]
*289 la_oenb[51]
*290 la_oenb[52]
*291 la_oenb[53]
*292 la_oenb[54]
*293 la_oenb[55]
*294 la_oenb[56]
*295 la_oenb[57]
*296 la_oenb[58]
*297 la_oenb[59]
*298 la_oenb[5]
*299 la_oenb[60]
*300 la_oenb[61]
*301 la_oenb[62]
*302 la_oenb[63]
*303 la_oenb[6]
*304 la_oenb[7]
*305 la_oenb[8]
*306 la_oenb[9]
*307 user_clock2
*308 user_irq[0]
*309 user_irq[1]
*310 user_irq[2]
*313 wb_clk_i
*314 wb_rst_i
*315 wbs_ack_o
*316 wbs_adr_i[0]
*317 wbs_adr_i[10]
*318 wbs_adr_i[11]
*319 wbs_adr_i[12]
*320 wbs_adr_i[13]
*321 wbs_adr_i[14]
*322 wbs_adr_i[15]
*323 wbs_adr_i[16]
*324 wbs_adr_i[17]
*325 wbs_adr_i[18]
*326 wbs_adr_i[19]
*327 wbs_adr_i[1]
*328 wbs_adr_i[20]
*329 wbs_adr_i[21]
*330 wbs_adr_i[22]
*331 wbs_adr_i[23]
*332 wbs_adr_i[24]
*333 wbs_adr_i[25]
*334 wbs_adr_i[26]
*335 wbs_adr_i[27]
*336 wbs_adr_i[28]
*337 wbs_adr_i[29]
*338 wbs_adr_i[2]
*339 wbs_adr_i[30]
*340 wbs_adr_i[31]
*341 wbs_adr_i[3]
*342 wbs_adr_i[4]
*343 wbs_adr_i[5]
*344 wbs_adr_i[6]
*345 wbs_adr_i[7]
*346 wbs_adr_i[8]
*347 wbs_adr_i[9]
*348 wbs_cyc_i
*349 wbs_dat_i[0]
*350 wbs_dat_i[10]
*351 wbs_dat_i[11]
*352 wbs_dat_i[12]
*353 wbs_dat_i[13]
*354 wbs_dat_i[14]
*355 wbs_dat_i[15]
*356 wbs_dat_i[16]
*357 wbs_dat_i[17]
*358 wbs_dat_i[18]
*359 wbs_dat_i[19]
*360 wbs_dat_i[1]
*361 wbs_dat_i[20]
*362 wbs_dat_i[21]
*363 wbs_dat_i[22]
*364 wbs_dat_i[23]
*365 wbs_dat_i[24]
*366 wbs_dat_i[25]
*367 wbs_dat_i[26]
*368 wbs_dat_i[27]
*369 wbs_dat_i[28]
*370 wbs_dat_i[29]
*371 wbs_dat_i[2]
*372 wbs_dat_i[30]
*373 wbs_dat_i[31]
*374 wbs_dat_i[3]
*375 wbs_dat_i[4]
*376 wbs_dat_i[5]
*377 wbs_dat_i[6]
*378 wbs_dat_i[7]
*379 wbs_dat_i[8]
*380 wbs_dat_i[9]
*381 wbs_dat_o[0]
*382 wbs_dat_o[10]
*383 wbs_dat_o[11]
*384 wbs_dat_o[12]
*385 wbs_dat_o[13]
*386 wbs_dat_o[14]
*387 wbs_dat_o[15]
*388 wbs_dat_o[16]
*389 wbs_dat_o[17]
*390 wbs_dat_o[18]
*391 wbs_dat_o[19]
*392 wbs_dat_o[1]
*393 wbs_dat_o[20]
*394 wbs_dat_o[21]
*395 wbs_dat_o[22]
*396 wbs_dat_o[23]
*397 wbs_dat_o[24]
*398 wbs_dat_o[25]
*399 wbs_dat_o[26]
*400 wbs_dat_o[27]
*401 wbs_dat_o[28]
*402 wbs_dat_o[29]
*403 wbs_dat_o[2]
*404 wbs_dat_o[30]
*405 wbs_dat_o[31]
*406 wbs_dat_o[3]
*407 wbs_dat_o[4]
*408 wbs_dat_o[5]
*409 wbs_dat_o[6]
*410 wbs_dat_o[7]
*411 wbs_dat_o[8]
*412 wbs_dat_o[9]
*413 wbs_sel_i[0]
*414 wbs_sel_i[1]
*415 wbs_sel_i[2]
*416 wbs_sel_i[3]
*417 wbs_stb_i
*418 wbs_we_i
*419 _000_
*420 _001_
*421 _002_
*422 _003_
*423 _004_
*424 _005_
*425 _006_
*426 _007_
*427 _008_
*428 _009_
*429 _010_
*430 _011_
*431 _012_
*432 _013_
*433 _014_
*434 _015_
*435 _016_
*436 _017_
*437 _018_
*438 _019_
*439 _020_
*440 _021_
*441 _022_
*442 _023_
*443 _024_
*444 _025_
*445 _026_
*446 _027_
*447 _028_
*448 _029_
*449 _030_
*450 _031_
*451 _032_
*452 _033_
*453 _034_
*454 _035_
*455 _036_
*456 _037_
*457 _038_
*458 _039_
*459 _040_
*460 _041_
*461 _042_
*462 _043_
*463 _044_
*464 _045_
*465 _046_
*466 _047_
*467 _048_
*468 _049_
*469 demux_0\.out\[19\]
*470 demux_0\.out\[20\]
*471 demux_0\.out\[21\]
*472 demux_0\.out\[22\]
*473 demux_0\.out\[23\]
*474 demux_0\.out\[24\]
*475 demux_0\.out\[38\]
*476 demux_0\.out\[39\]
*477 demux_0\.out\[40\]
*478 demux_0\.out\[41\]
*479 demux_0\.out\[42\]
*480 demux_0\.out\[43\]
*481 demux_0\.out\[44\]
*482 demux_0\.out\[45\]
*483 demux_0\.out\[46\]
*484 demux_0\.out\[47\]
*485 demux_0\.out\[48\]
*486 demux_0\.out\[49\]
*487 demux_0\.out\[50\]
*488 demux_0\.out\[51\]
*489 demux_0\.out\[52\]
*490 demux_0\.out\[53\]
*491 demux_0\.out\[54\]
*492 demux_0\.out\[55\]
*493 demux_0\.out\[56\]
*494 mux_0\.drivers\[10\]
*495 mux_0\.drivers\[11\]
*496 mux_0\.drivers\[12\]
*497 mux_0\.drivers\[13\]
*498 mux_0\.drivers\[14\]
*499 mux_0\.drivers\[15\]
*500 mux_0\.drivers\[16\]
*501 mux_0\.drivers\[17\]
*502 mux_0\.drivers\[18\]
*503 mux_0\.drivers\[19\]
*504 mux_0\.drivers\[20\]
*505 mux_0\.drivers\[21\]
*506 mux_0\.drivers\[22\]
*507 mux_0\.drivers\[23\]
*508 mux_0\.drivers\[8\]
*509 mux_0\.drivers\[9\]
*510 _050_
*511 _051_
*512 _052_
*513 _053_
*514 _054_
*515 _055_
*516 _056_
*517 _057_
*518 _058_
*519 _059_
*520 _060_
*521 _061_
*522 _062_
*523 _063_
*524 _064_
*525 _065_
*526 _066_
*527 _067_
*528 _068_
*529 _069_
*530 _070_
*531 _071_
*532 _072_
*533 _073_
*534 _074_
*535 _075_
*536 _076_
*537 _077_
*538 _078_
*539 _079_
*540 _080_
*541 _081_
*542 _082_
*543 _083_
*544 _084_
*545 _085_
*546 _086_
*547 _087_
*548 _088_
*549 _089_
*550 _090_
*551 _091_
*552 _092_
*553 _093_
*554 _094_
*555 _095_
*556 _096_
*557 _097_
*558 _098_
*559 _099_
*560 _100_
*561 _101_
*562 _102_
*563 _103_
*564 _104_
*565 _105_
*566 _106_
*567 _107_
*568 _108_
*569 _109_
*570 _110_
*571 _111_
*572 _112_
*573 _113_
*574 _114_
*575 _115_
*576 _116_
*577 _117_
*578 _118_
*579 _119_
*580 _120_
*581 _121_
*582 _122_
*583 _123_
*584 _124_
*585 _125_
*586 _126_
*587 _127_
*588 _128_
*589 _129_
*590 _130_
*591 _131_
*592 _132_
*593 _133_
*594 _134_
*595 _135_
*596 _136_
*597 _137_
*598 _138_
*599 _139_
*600 _140_
*601 _141_
*602 _142_
*603 _143_
*604 _144_
*605 _145_
*606 _146_
*607 _147_
*608 _148_
*609 _149_
*610 _150_
*611 _151_
*612 _152_
*613 _153_
*614 _154_
*615 _155_
*616 _156_
*617 _157_
*618 _158_
*619 _159_
*620 _160_
*621 _161_
*622 _162_
*623 _163_
*624 _164_
*625 _165_
*626 _166_
*627 _167_
*628 _168_
*629 _169_
*630 _170_
*631 _171_
*632 _172_
*633 _173_
*634 _174_
*635 _175_
*636 _176_
*637 _177_
*638 _178_
*639 _179_
*640 _180_
*641 _181_
*642 _182_
*643 _183_
*644 _184_
*645 _185_
*646 _186_
*647 _187_
*648 _188_
*649 _189_
*650 _190_
*651 _191_
*652 _192_
*653 _193_
*654 _194_
*655 _195_
*656 _196_
*657 _197_
*658 _198_
*659 _199_
*660 _200_
*661 _201_
*662 _202_
*663 _203_
*664 _204_
*665 _205_
*666 _206_
*667 _207_
*668 _208_
*669 _209_
*670 _210_
*671 _211_
*672 _212_
*673 _213_
*674 _214_
*675 _215_
*676 _216_
*677 _217_
*678 _218_
*679 _219_
*680 _220_
*681 _221_
*682 _222_
*683 _223_
*684 _224_
*685 _225_
*686 _226_
*687 _227_
*688 _228_
*689 _229_
*690 _230_
*691 _231_
*692 _232_
*693 _233_
*694 _234_
*695 _235_
*696 _236_
*697 _237_
*698 _238_
*699 _239_
*700 _240_
*701 _241_
*702 _242_
*703 _243_
*704 _244_
*705 _245_
*706 _246_
*707 _247_
*708 _248_
*709 _249_
*710 _250_
*711 _251_
*712 _252_
*713 _253_
*714 _254_
*715 _255_
*716 _256_
*717 _257_
*718 _258_
*719 _259_
*720 _260_
*721 _261_
*722 _262_
*723 _263_
*724 _264_
*725 _265_
*726 _266_
*727 _267_
*728 _268_
*729 _269_
*730 _270_
*731 _271_
*732 _272_
*733 _273_
*734 _274_
*735 _275_
*736 _276_
*737 _277_
*738 _278_
*739 _279_
*740 _280_
*741 _281_
*742 _282_
*743 _283_
*744 _284_
*745 _285_
*746 _286_
*747 _287_
*748 _288_
*749 _289_
*750 _290_
*751 _291_
*752 _292_
*753 _293_
*754 _294_
*755 _295_
*756 _296_
*757 _297_
*758 _298_
*759 _299_
*760 _300_
*761 fpu8_wrap_0
*762 rle1_enc_wrap_0

*PORTS
io_in[0] I
io_in[10] I
io_in[11] I
io_in[12] I
io_in[13] I
io_in[14] I
io_in[15] I
io_in[16] I
io_in[17] I
io_in[18] I
io_in[19] I
io_in[1] I
io_in[20] I
io_in[21] I
io_in[22] I
io_in[23] I
io_in[24] I
io_in[25] I
io_in[26] I
io_in[27] I
io_in[28] I
io_in[29] I
io_in[2] I
io_in[30] I
io_in[31] I
io_in[32] I
io_in[33] I
io_in[34] I
io_in[35] I
io_in[36] I
io_in[37] I
io_in[3] I
io_in[4] I
io_in[5] I
io_in[6] I
io_in[7] I
io_in[8] I
io_in[9] I
io_oeb[0] O
io_oeb[10] O
io_oeb[11] O
io_oeb[12] O
io_oeb[13] O
io_oeb[14] O
io_oeb[15] O
io_oeb[16] O
io_oeb[17] O
io_oeb[18] O
io_oeb[19] O
io_oeb[1] O
io_oeb[20] O
io_oeb[21] O
io_oeb[22] O
io_oeb[23] O
io_oeb[24] O
io_oeb[25] O
io_oeb[26] O
io_oeb[27] O
io_oeb[28] O
io_oeb[29] O
io_oeb[2] O
io_oeb[30] O
io_oeb[31] O
io_oeb[32] O
io_oeb[33] O
io_oeb[34] O
io_oeb[35] O
io_oeb[36] O
io_oeb[37] O
io_oeb[3] O
io_oeb[4] O
io_oeb[5] O
io_oeb[6] O
io_oeb[7] O
io_oeb[8] O
io_oeb[9] O
io_out[0] O
io_out[10] O
io_out[11] O
io_out[12] O
io_out[13] O
io_out[14] O
io_out[15] O
io_out[16] O
io_out[17] O
io_out[18] O
io_out[19] O
io_out[1] O
io_out[20] O
io_out[21] O
io_out[22] O
io_out[23] O
io_out[24] O
io_out[25] O
io_out[26] O
io_out[27] O
io_out[28] O
io_out[29] O
io_out[2] O
io_out[30] O
io_out[31] O
io_out[32] O
io_out[33] O
io_out[34] O
io_out[35] O
io_out[36] O
io_out[37] O
io_out[3] O
io_out[4] O
io_out[5] O
io_out[6] O
io_out[7] O
io_out[8] O
io_out[9] O
la_data_in[0] I
la_data_in[10] I
la_data_in[11] I
la_data_in[12] I
la_data_in[13] I
la_data_in[14] I
la_data_in[15] I
la_data_in[16] I
la_data_in[17] I
la_data_in[18] I
la_data_in[19] I
la_data_in[1] I
la_data_in[20] I
la_data_in[21] I
la_data_in[22] I
la_data_in[23] I
la_data_in[24] I
la_data_in[25] I
la_data_in[26] I
la_data_in[27] I
la_data_in[28] I
la_data_in[29] I
la_data_in[2] I
la_data_in[30] I
la_data_in[31] I
la_data_in[32] I
la_data_in[33] I
la_data_in[34] I
la_data_in[35] I
la_data_in[36] I
la_data_in[37] I
la_data_in[38] I
la_data_in[39] I
la_data_in[3] I
la_data_in[40] I
la_data_in[41] I
la_data_in[42] I
la_data_in[43] I
la_data_in[44] I
la_data_in[45] I
la_data_in[46] I
la_data_in[47] I
la_data_in[48] I
la_data_in[49] I
la_data_in[4] I
la_data_in[50] I
la_data_in[51] I
la_data_in[52] I
la_data_in[53] I
la_data_in[54] I
la_data_in[55] I
la_data_in[56] I
la_data_in[57] I
la_data_in[58] I
la_data_in[59] I
la_data_in[5] I
la_data_in[60] I
la_data_in[61] I
la_data_in[62] I
la_data_in[63] I
la_data_in[6] I
la_data_in[7] I
la_data_in[8] I
la_data_in[9] I
la_data_out[0] O
la_data_out[10] O
la_data_out[11] O
la_data_out[12] O
la_data_out[13] O
la_data_out[14] O
la_data_out[15] O
la_data_out[16] O
la_data_out[17] O
la_data_out[18] O
la_data_out[19] O
la_data_out[1] O
la_data_out[20] O
la_data_out[21] O
la_data_out[22] O
la_data_out[23] O
la_data_out[24] O
la_data_out[25] O
la_data_out[26] O
la_data_out[27] O
la_data_out[28] O
la_data_out[29] O
la_data_out[2] O
la_data_out[30] O
la_data_out[31] O
la_data_out[32] O
la_data_out[33] O
la_data_out[34] O
la_data_out[35] O
la_data_out[36] O
la_data_out[37] O
la_data_out[38] O
la_data_out[39] O
la_data_out[3] O
la_data_out[40] O
la_data_out[41] O
la_data_out[42] O
la_data_out[43] O
la_data_out[44] O
la_data_out[45] O
la_data_out[46] O
la_data_out[47] O
la_data_out[48] O
la_data_out[49] O
la_data_out[4] O
la_data_out[50] O
la_data_out[51] O
la_data_out[52] O
la_data_out[53] O
la_data_out[54] O
la_data_out[55] O
la_data_out[56] O
la_data_out[57] O
la_data_out[58] O
la_data_out[59] O
la_data_out[5] O
la_data_out[60] O
la_data_out[61] O
la_data_out[62] O
la_data_out[63] O
la_data_out[6] O
la_data_out[7] O
la_data_out[8] O
la_data_out[9] O
la_oenb[0] I
la_oenb[10] I
la_oenb[11] I
la_oenb[12] I
la_oenb[13] I
la_oenb[14] I
la_oenb[15] I
la_oenb[16] I
la_oenb[17] I
la_oenb[18] I
la_oenb[19] I
la_oenb[1] I
la_oenb[20] I
la_oenb[21] I
la_oenb[22] I
la_oenb[23] I
la_oenb[24] I
la_oenb[25] I
la_oenb[26] I
la_oenb[27] I
la_oenb[28] I
la_oenb[29] I
la_oenb[2] I
la_oenb[30] I
la_oenb[31] I
la_oenb[32] I
la_oenb[33] I
la_oenb[34] I
la_oenb[35] I
la_oenb[36] I
la_oenb[37] I
la_oenb[38] I
la_oenb[39] I
la_oenb[3] I
la_oenb[40] I
la_oenb[41] I
la_oenb[42] I
la_oenb[43] I
la_oenb[44] I
la_oenb[45] I
la_oenb[46] I
la_oenb[47] I
la_oenb[48] I
la_oenb[49] I
la_oenb[4] I
la_oenb[50] I
la_oenb[51] I
la_oenb[52] I
la_oenb[53] I
la_oenb[54] I
la_oenb[55] I
la_oenb[56] I
la_oenb[57] I
la_oenb[58] I
la_oenb[59] I
la_oenb[5] I
la_oenb[60] I
la_oenb[61] I
la_oenb[62] I
la_oenb[63] I
la_oenb[6] I
la_oenb[7] I
la_oenb[8] I
la_oenb[9] I
user_clock2 I
user_irq[0] O
user_irq[1] O
user_irq[2] O
wb_clk_i I
wb_rst_i I
wbs_ack_o O
wbs_adr_i[0] I
wbs_adr_i[10] I
wbs_adr_i[11] I
wbs_adr_i[12] I
wbs_adr_i[13] I
wbs_adr_i[14] I
wbs_adr_i[15] I
wbs_adr_i[16] I
wbs_adr_i[17] I
wbs_adr_i[18] I
wbs_adr_i[19] I
wbs_adr_i[1] I
wbs_adr_i[20] I
wbs_adr_i[21] I
wbs_adr_i[22] I
wbs_adr_i[23] I
wbs_adr_i[24] I
wbs_adr_i[25] I
wbs_adr_i[26] I
wbs_adr_i[27] I
wbs_adr_i[28] I
wbs_adr_i[29] I
wbs_adr_i[2] I
wbs_adr_i[30] I
wbs_adr_i[31] I
wbs_adr_i[3] I
wbs_adr_i[4] I
wbs_adr_i[5] I
wbs_adr_i[6] I
wbs_adr_i[7] I
wbs_adr_i[8] I
wbs_adr_i[9] I
wbs_cyc_i I
wbs_dat_i[0] I
wbs_dat_i[10] I
wbs_dat_i[11] I
wbs_dat_i[12] I
wbs_dat_i[13] I
wbs_dat_i[14] I
wbs_dat_i[15] I
wbs_dat_i[16] I
wbs_dat_i[17] I
wbs_dat_i[18] I
wbs_dat_i[19] I
wbs_dat_i[1] I
wbs_dat_i[20] I
wbs_dat_i[21] I
wbs_dat_i[22] I
wbs_dat_i[23] I
wbs_dat_i[24] I
wbs_dat_i[25] I
wbs_dat_i[26] I
wbs_dat_i[27] I
wbs_dat_i[28] I
wbs_dat_i[29] I
wbs_dat_i[2] I
wbs_dat_i[30] I
wbs_dat_i[31] I
wbs_dat_i[3] I
wbs_dat_i[4] I
wbs_dat_i[5] I
wbs_dat_i[6] I
wbs_dat_i[7] I
wbs_dat_i[8] I
wbs_dat_i[9] I
wbs_dat_o[0] O
wbs_dat_o[10] O
wbs_dat_o[11] O
wbs_dat_o[12] O
wbs_dat_o[13] O
wbs_dat_o[14] O
wbs_dat_o[15] O
wbs_dat_o[16] O
wbs_dat_o[17] O
wbs_dat_o[18] O
wbs_dat_o[19] O
wbs_dat_o[1] O
wbs_dat_o[20] O
wbs_dat_o[21] O
wbs_dat_o[22] O
wbs_dat_o[23] O
wbs_dat_o[24] O
wbs_dat_o[25] O
wbs_dat_o[26] O
wbs_dat_o[27] O
wbs_dat_o[28] O
wbs_dat_o[29] O
wbs_dat_o[2] O
wbs_dat_o[30] O
wbs_dat_o[31] O
wbs_dat_o[3] O
wbs_dat_o[4] O
wbs_dat_o[5] O
wbs_dat_o[6] O
wbs_dat_o[7] O
wbs_dat_o[8] O
wbs_dat_o[9] O
wbs_sel_i[0] I
wbs_sel_i[1] I
wbs_sel_i[2] I
wbs_sel_i[3] I
wbs_stb_i I
wbs_we_i I

*D_NET *2 0.470685
*CONN
*P io_in[10] I
*I *543:A1 I *D gf180mcu_fd_sc_mcu7t5v0__and2_1
*I *583:A1 I *D gf180mcu_fd_sc_mcu7t5v0__and2_1
*CAP
1 io_in[10] 0.00125596
2 *543:A1 0
3 *583:A1 0
4 *2:21 0.0656103
5 *2:19 0.0656103
6 *2:17 0.0103317
7 *2:15 0.0103317
8 *2:13 0.0148653
9 *2:11 0.0148653
10 *2:9 0.0314873
11 *2:7 0.0327433
12 *2:9 *3:9 0.108021
13 *2:9 *41:6 0
14 *2:9 *110:6 0
15 *2:17 *419:18 5.13977e-05
16 *2:17 *419:22 0.000487262
17 *2:21 *423:10 0
18 *2:21 *454:20 0.115025
*RES
1 io_in[10] *2:7 14.12 
2 *2:7 *2:9 357.448 
3 *2:9 *2:11 4.5 
4 *2:11 *2:13 128.232 
5 *2:13 *2:15 4.5 
6 *2:15 *2:17 87.464 
7 *2:17 *2:19 4.5 
8 *2:19 *2:21 705.224 
9 *2:21 *583:A1 9 
10 *2:15 *543:A1 4.5 
*END

*D_NET *3 0.524632
*CONN
*P io_in[11] I
*I *545:A1 I *D gf180mcu_fd_sc_mcu7t5v0__and2_1
*I *585:A1 I *D gf180mcu_fd_sc_mcu7t5v0__and2_1
*CAP
1 io_in[11] 0.00118997
2 *545:A1 0
3 *585:A1 0
4 *3:30 0.0160058
5 *3:28 0.0160058
6 *3:19 0.0544247
7 *3:17 0.0546727
8 *3:13 0.0494201
9 *3:11 0.0491721
10 *3:9 0.00528978
11 *3:7 0.00647974
12 *3:9 *4:9 0.0661776
13 *3:9 *6:9 0.0255336
14 *3:9 *36:9 0.0255239
15 *3:9 *41:6 0
16 *3:9 *78:12 0.00834601
17 *3:9 *110:6 0
18 *3:13 *49:8 0
19 *3:17 *49:8 0
20 *3:19 *585:A2 0.000208806
21 *3:19 *49:8 0.00461239
22 *3:19 *454:136 0.0202554
23 *3:19 *504:13 0
24 *3:30 *419:45 0.0132926
25 *2:9 *3:9 0.108021
*RES
1 io_in[11] *3:7 13.912 
2 *3:7 *3:9 350.584 
3 *3:9 *3:11 4.5 
4 *3:11 *3:13 424.424 
5 *3:13 *3:17 2.184 
6 *3:17 *3:19 509.184 
7 *3:19 *585:A1 9 
8 *3:13 *3:28 4.5 
9 *3:28 *3:30 166.088 
10 *3:30 *545:A1 4.5 
*END

*D_NET *4 0.452046
*CONN
*P io_in[12] I
*I *587:A1 I *D gf180mcu_fd_sc_mcu7t5v0__and2_1
*I *547:A1 I *D gf180mcu_fd_sc_mcu7t5v0__and2_1
*CAP
1 io_in[12] 0.00114566
2 *587:A1 0
3 *547:A1 0
4 *4:30 0.054317
5 *4:28 0.054317
6 *4:19 0.00654105
7 *4:17 0.00759666
8 *4:13 0.0795907
9 *4:11 0.0785351
10 *4:9 0.00817088
11 *4:7 0.00931655
12 *4:9 *6:9 0.0120191
13 *4:9 *78:12 0.0470414
14 *4:30 *454:24 0.0272769
15 *3:9 *4:9 0.0661776
*RES
1 io_in[12] *4:7 13.704 
2 *4:7 *4:9 243.256 
3 *4:9 *4:11 4.5 
4 *4:11 *4:13 535.6 
5 *4:13 *4:17 9.256 
6 *4:17 *4:19 56.264 
7 *4:19 *547:A1 9 
8 *4:17 *4:28 4.5 
9 *4:28 *4:30 516.984 
10 *4:30 *587:A1 4.5 
*END

*D_NET *5 0.40321
*CONN
*P io_in[13] I
*I *549:A1 I *D gf180mcu_fd_sc_mcu7t5v0__and2_1
*I *589:A1 I *D gf180mcu_fd_sc_mcu7t5v0__and2_1
*CAP
1 io_in[13] 0.00116827
2 *549:A1 0
3 *589:A1 0.00223784
4 *5:30 0.0241181
5 *5:28 0.0241181
6 *5:17 0.00248547
7 *5:13 0.116047
8 *5:11 0.115799
9 *5:9 0.00422579
10 *5:7 0.00539406
11 *589:A1 *451:10 0.00118627
12 *589:A1 *451:12 0.0022296
13 *5:9 *6:9 0.0274798
14 *5:13 *451:12 0.0441302
15 *5:13 *499:13 0
16 *5:17 *451:12 0.000170921
17 *5:30 *479:14 0.0324194
*RES
1 io_in[13] *5:7 13.912 
2 *5:7 *5:9 70.408 
3 *5:9 *5:11 4.5 
4 *5:11 *5:13 1059.55 
5 *5:13 *5:17 2.392 
6 *5:17 *589:A1 36.56 
7 *5:17 *5:28 4.5 
8 *5:28 *5:30 305.656 
9 *5:30 *549:A1 4.5 
*END

*D_NET *6 0.269075
*CONN
*P io_in[14] I
*I *591:A1 I *D gf180mcu_fd_sc_mcu7t5v0__and2_1
*CAP
1 io_in[14] 0.00146141
2 *591:A1 0
3 *6:13 0.0762698
4 *6:11 0.0762698
5 *6:9 0.0242899
6 *6:7 0.0257513
7 *6:9 *41:6 0
8 *3:9 *6:9 0.0255336
9 *4:9 *6:9 0.0120191
10 *5:9 *6:9 0.0274798
*RES
1 io_in[14] *6:7 14.12 
2 *6:7 *6:9 286.312 
3 *6:9 *6:11 4.5 
4 *6:11 *6:13 660.712 
5 *6:13 *591:A1 9 
*END

*D_NET *7 0.392627
*CONN
*P io_in[15] I
*I *513:A1 I *D gf180mcu_fd_sc_mcu7t5v0__and2_1
*CAP
1 io_in[15] 0.0801113
2 *513:A1 0
3 *7:9 0.116202
4 *7:7 0.116202
5 *7:5 0.0801113
*RES
1 io_in[15] *7:5 673.348 
2 *7:5 *7:7 4.5 
3 *7:7 *7:9 998.712 
4 *7:9 *513:A1 9 
*END

*D_NET *8 0.205634
*CONN
*P io_in[16] I
*I *515:A1 I *D gf180mcu_fd_sc_mcu7t5v0__and2_1
*CAP
1 io_in[16] 0.0581669
2 *515:A1 0
3 *8:9 0.0399636
4 *8:7 0.0399636
5 *8:5 0.0581669
6 *8:5 la_data_out[53] 0.00937327
*RES
1 io_in[16] *8:5 521.924 
2 *8:5 *8:7 4.5 
3 *8:7 *8:9 344.136 
4 *8:9 *515:A1 9 
*END

*D_NET *9 0.227261
*CONN
*P io_in[17] I
*I *517:A1 I *D gf180mcu_fd_sc_mcu7t5v0__and2_1
*CAP
1 io_in[17] 0.104861
2 *517:A1 0
3 *9:9 0.00361019
4 *9:7 0.00361019
5 *9:5 0.104861
6 *9:9 *455:10 0.000208806
7 *9:9 *455:14 0.00198104
8 *9:9 *455:18 0.00766217
9 *9:9 *458:8 0.000467229
*RES
1 io_in[17] *9:5 872.404 
2 *9:5 *9:7 4.5 
3 *9:7 *9:9 54.6 
4 *9:9 *517:A1 9 
*END

*D_NET *10 0.268568
*CONN
*P io_in[18] I
*I *519:A1 I *D gf180mcu_fd_sc_mcu7t5v0__and2_1
*CAP
1 io_in[18] 0.085632
2 *519:A1 0
3 *10:9 0.0138004
4 *10:7 0.0138004
5 *10:5 0.085632
6 *10:5 la_data_out[30] 0.0697029
7 *10:5 *430:6 0
8 *10:5 *430:10 0
*RES
1 io_in[18] *10:5 927.94 
2 *10:5 *10:7 4.5 
3 *10:7 *10:9 119.288 
4 *10:9 *519:A1 9 
*END

*D_NET *11 0.293226
*CONN
*P io_in[19] I
*I *521:A1 I *D gf180mcu_fd_sc_mcu7t5v0__and2_1
*CAP
1 io_in[19] 0.108688
2 *521:A1 0
3 *11:9 0.00907885
4 *11:7 0.00907885
5 *11:5 0.108688
6 *11:9 io_oeb[2] 0
7 *11:9 *455:30 0.0495928
8 *11:9 *455:34 0.00809937
*RES
1 io_in[19] *11:5 898.82 
2 *11:5 *11:7 4.5 
3 *11:7 *11:9 149.24 
4 *11:9 *521:A1 9 
*END

*D_NET *13 0.186686
*CONN
*P io_in[20] I
*I *523:A1 I *D gf180mcu_fd_sc_mcu7t5v0__and2_1
*CAP
1 io_in[20] 0.00115308
2 *523:A1 0
3 *13:13 0.0365907
4 *13:11 0.0365907
5 *13:9 0.00521253
6 *13:7 0.00636561
7 *13:9 *14:9 0.0184056
8 *13:9 *15:9 0
9 *13:9 *51:10 0.0346806
10 *13:9 *87:10 0.0476874
*RES
1 io_in[20] *13:7 13.912 
2 *13:7 *13:9 169 
3 *13:9 *13:11 4.5 
4 *13:11 *13:13 238.68 
5 *13:13 *523:A1 4.5 
*END

*D_NET *14 0.164665
*CONN
*P io_in[21] I
*I *525:A1 I *D gf180mcu_fd_sc_mcu7t5v0__and2_1
*CAP
1 io_in[21] 0.00110845
2 *525:A1 0
3 *14:13 0.0544876
4 *14:11 0.0544876
5 *14:9 0.0088486
6 *14:7 0.00995705
7 *14:9 *15:9 0
8 *14:9 *51:10 0.01737
9 *13:9 *14:9 0.0184056
*RES
1 io_in[21] *14:7 13.704 
2 *14:7 *14:9 146.952 
3 *14:9 *14:11 4.5 
4 *14:11 *14:13 454.376 
5 *14:13 *525:A1 4.5 
*END

*D_NET *15 0.168132
*CONN
*P io_in[22] I
*I *527:A1 I *D gf180mcu_fd_sc_mcu7t5v0__and2_1
*CAP
1 io_in[22] 0.000918364
2 *527:A1 0
3 *15:9 0.0658597
4 *15:7 0.0667781
5 *15:9 *46:16 0
6 *15:9 *85:10 0
7 *15:9 *86:10 0
8 *15:9 *87:10 0
9 *15:9 *463:8 0.0345759
10 *13:9 *15:9 0
11 *14:9 *15:9 0
*RES
1 io_in[22] *15:7 12.248 
2 *15:7 *15:9 618.696 
3 *15:9 *527:A1 9 
*END

*D_NET *16 0.161154
*CONN
*P io_in[23] I
*I *529:A1 I *D gf180mcu_fd_sc_mcu7t5v0__and2_1
*CAP
1 io_in[23] 0.00113656
2 *529:A1 0.00102413
3 *16:13 0.0677513
4 *16:11 0.0667272
5 *16:9 0.00895715
6 *16:7 0.0100937
7 *529:A1 *455:80 0.00528462
8 *529:A1 *464:10 0.000179051
9 *16:13 *442:6 0
*RES
1 io_in[23] *16:7 14.12 
2 *16:7 *16:9 79.144 
3 *16:9 *16:11 4.5 
4 *16:11 *16:13 560.248 
5 *16:13 *529:A1 27.332 
*END

*D_NET *17 0.0680812
*CONN
*P io_in[24] I
*I *531:A1 I *D gf180mcu_fd_sc_mcu7t5v0__and2_1
*CAP
1 io_in[24] 0.00267155
2 *531:A1 0
3 *17:13 0.0313691
4 *17:11 0.0340406
*RES
1 io_in[24] *17:11 31.62 
2 *17:11 *17:13 273.416 
3 *17:13 *531:A1 9 
*END

*D_NET *18 0.238841
*CONN
*P io_in[25] I
*I *533:A1 I *D gf180mcu_fd_sc_mcu7t5v0__and2_1
*CAP
1 io_in[25] 0.000880038
2 *533:A1 0
3 *18:13 0.0809889
4 *18:11 0.0809889
5 *18:9 0.00381739
6 *18:7 0.00469742
7 *18:9 *93:12 0.0298807
8 *18:9 *95:12 0.0110202
9 *18:9 *97:12 0.015595
10 *18:9 *107:12 0.0106957
11 *18:9 *107:18 0.000276384
12 *18:13 *468:27 0
*RES
1 io_in[25] *18:7 12.248 
2 *18:7 *18:9 172.536 
3 *18:9 *18:11 4.5 
4 *18:11 *18:13 698.984 
5 *18:13 *533:A1 9 
*END

*D_NET *19 0.570567
*CONN
*P io_in[26] I
*I *535:A1 I *D gf180mcu_fd_sc_mcu7t5v0__and2_1
*CAP
1 io_in[26] 0.0258614
2 *535:A1 0
3 *19:13 0.073365
4 *19:11 0.073365
5 *19:9 0.0901458
6 *19:7 0.0901458
7 *19:5 0.0258614
8 *19:5 *93:8 0
9 *19:5 *491:12 0
10 *19:9 wbs_dat_o[15] 0.0349573
11 *19:9 *108:6 0.0172335
12 *19:13 *395:8 0.0196361
13 *19:13 *467:8 0.119597
14 *19:13 *495:11 0.000398338
*RES
1 io_in[26] *19:5 222.404 
2 *19:5 *19:7 4.5 
3 *19:7 *19:9 890.552 
4 *19:9 *19:11 4.5 
5 *19:11 *19:13 856.856 
6 *19:13 *535:A1 9 
*END

*D_NET *34 0.598961
*CONN
*P io_in[5] I
*I *538:A2 I *D gf180mcu_fd_sc_mcu7t5v0__nor3_1
*I *510:I I *D gf180mcu_fd_sc_mcu7t5v0__clkinv_1
*I *554:A2 I *D gf180mcu_fd_sc_mcu7t5v0__or3_1
*CAP
1 io_in[5] 0.00700054
2 *538:A2 9.77387e-05
3 *510:I 0.00363714
4 *554:A2 0
5 *34:45 0.0621003
6 *34:43 0.0620026
7 *34:30 0.026366
8 *34:28 0.0241051
9 *34:19 0.00265174
10 *34:17 0.00402797
11 *34:15 0.0726785
12 *34:13 0.0733169
13 *34:5 0.007639
14 *34:13 la_data_out[61] 0
15 *34:15 *188:10 0.00129742
16 *34:19 *36:48 0.0189935
17 *34:19 *468:12 0.0190031
18 *34:28 *36:48 0.00632537
19 *34:28 *429:6 0.000200156
20 *34:28 *468:12 0.00756966
21 *34:30 *429:6 0
22 *34:30 *468:12 0.143706
23 *34:45 *36:62 0.0562417
*RES
1 io_in[5] *34:5 61.204 
2 *34:5 *34:13 12.536 
3 *34:13 *34:15 630.136 
4 *34:15 *34:17 4.5 
5 *34:17 *34:19 117.624 
6 *34:19 *554:A2 4.5 
7 *34:17 *34:28 47.32 
8 *34:28 *34:30 369.408 
9 *34:30 *510:I 45.428 
10 *34:13 *34:43 4.5 
11 *34:43 *34:45 556.296 
12 *34:45 *538:A2 5.228 
*END

*D_NET *35 0.358222
*CONN
*P io_in[6] I
*I *552:A1 I *D gf180mcu_fd_sc_mcu7t5v0__or3_1
*I *537:I I *D gf180mcu_fd_sc_mcu7t5v0__clkinv_1
*I *511:A1 I *D gf180mcu_fd_sc_mcu7t5v0__nor3_1
*CAP
1 io_in[6] 0.0239579
2 *552:A1 0
3 *537:I 0.0015799
4 *511:A1 5.08646e-05
5 *35:49 0.012613
6 *35:47 0.012613
7 *35:36 0.0459821
8 *35:23 0.00330874
9 *35:21 0.00718784
10 *35:13 0.0483322
11 *35:11 0.0726153
12 *35:9 0.0739685
13 *35:5 0.0253111
14 *511:A1 *393:8 0
15 *35:21 *454:14 0.000242172
16 *35:21 *454:76 0
17 *35:23 *36:37 0.0201585
18 *35:23 *393:8 0
19 *35:23 *453:16 3.646e-05
20 *35:49 *36:27 0.0102643
*RES
1 io_in[6] *35:5 205.972 
2 *35:5 *35:9 11.752 
3 *35:9 *35:11 625.248 
4 *35:11 *35:13 4.5 
5 *35:13 *35:21 36.844 
6 *35:21 *35:23 51.584 
7 *35:23 *511:A1 9.52 
8 *35:13 *35:36 368.368 
9 *35:36 *537:I 17.916 
10 *35:5 *35:47 4.5 
11 *35:47 *35:49 139.88 
12 *35:49 *552:A1 4.5 
*END

*D_NET *36 0.502844
*CONN
*P io_in[7] I
*I *538:A3 I *D gf180mcu_fd_sc_mcu7t5v0__nor3_1
*I *552:A3 I *D gf180mcu_fd_sc_mcu7t5v0__or3_1
*I *554:A3 I *D gf180mcu_fd_sc_mcu7t5v0__or3_1
*I *511:A3 I *D gf180mcu_fd_sc_mcu7t5v0__nor3_1
*CAP
1 io_in[7] 0.00116734
2 *538:A3 0
3 *552:A3 0
4 *554:A3 0
5 *511:A3 0
6 *36:62 0.0226352
7 *36:60 0.0226352
8 *36:48 0.00661592
9 *36:46 0.00661592
10 *36:37 0.0102587
11 *36:35 0.0112476
12 *36:31 0.0574177
13 *36:29 0.0564288
14 *36:27 0.0165604
15 *36:25 0.0178814
16 *36:19 0.0139657
17 *36:17 0.0154605
18 *36:13 0.00908254
19 *36:11 0.0062667
20 *36:9 0.00393451
21 *36:7 0.00510185
22 *36:9 *110:6 0
23 *36:25 *552:A2 0.000199998
24 *36:37 *453:16 0.0673184
25 *36:37 *454:78 0
26 *36:48 *429:6 0.0114038
27 *36:62 *538:A1 0.000718891
28 *36:62 *468:31 0.00241938
29 *3:9 *36:9 0.0255239
30 *34:19 *36:48 0.0189935
31 *34:28 *36:48 0.00632537
32 *34:45 *36:62 0.0562417
33 *35:23 *36:37 0.0201585
34 *35:49 *36:27 0.0102643
*RES
1 io_in[7] *36:7 13.704 
2 *36:7 *36:9 65.416 
3 *36:9 *36:11 4.5 
4 *36:11 *36:13 53.56 
5 *36:13 *36:17 24.024 
6 *36:17 *36:19 109.304 
7 *36:19 *36:25 16.46 
8 *36:25 *36:27 172.328 
9 *36:27 *36:29 4.5 
10 *36:29 *36:31 485.16 
11 *36:31 *36:35 7.176 
12 *36:35 *36:37 196.144 
13 *36:37 *511:A3 9 
14 *36:31 *36:46 4.5 
15 *36:46 *36:48 156.728 
16 *36:48 *554:A3 4.5 
17 *36:25 *552:A3 4.5 
18 *36:13 *36:60 4.5 
19 *36:60 *36:62 345.176 
20 *36:62 *538:A3 4.5 
*END

*D_NET *37 0.464641
*CONN
*P io_in[8] I
*I *579:A1 I *D gf180mcu_fd_sc_mcu7t5v0__and2_1
*I *539:A1 I *D gf180mcu_fd_sc_mcu7t5v0__and2_1
*CAP
1 io_in[8] 0.0284954
2 *579:A1 0
3 *539:A1 0
4 *37:17 0.0127552
5 *37:15 0.0127552
6 *37:13 0.0267767
7 *37:11 0.0267767
8 *37:9 0.0101012
9 *37:7 0.0101012
10 *37:5 0.0284954
11 *37:5 *78:8 0.181731
12 *37:9 *446:6 0.00604219
13 *37:13 *53:8 0.00987993
14 *37:13 *454:86 0.0814153
15 *37:17 *419:70 0.029316
*RES
1 io_in[8] *37:5 466.388 
2 *37:5 *37:7 4.5 
3 *37:7 *37:9 105.976 
4 *37:9 *37:11 4.5 